units           real
atom_style      full
boundary        p p p

pair_style      lj/cut 5.000
bond_style      harmonic
angle_style     hybrid fourier cosine/periodic
dihedral_style  harmonic

pair_modify     tail yes mix arithmetic
special_bonds   lj/coul 0.0 0.0 1.0
dielectric      1.0
box tilt        large

The 'box' command has been removed and will be ignored

read_data       ./dat/data.333SiO2-1-UFF
Reading data file ...
  triclinic box = (0 0 0) to (14.6913 12.723039 15.9631) with tilt (-7.34565 0 0)
  reading atoms ...
  243 atoms
  scanning bonds ...
  scanning angles ...
  scanning dihedrals ...
  triclinic box = (0 0 0) to (14.6913 12.723039 15.9631) with tilt (-7.34565 0 0)
  reading bonds ...
  324 bonds
  reading angles ...
  648 angles
  reading dihedrals ...
  972 dihedrals
Finding 1-2 1-3 1-4 neighbors ...
     4 = max # of 1-2 neighbors
     6 = max # of 1-3 neighbors
     8 = max # of special neighbors

#### Atom Groupings ####
group           fram     id   1:243
243 atoms in group fram
#### END Atom Groupings ####

compute am all property/atom mass
dump        atom_pos all extxyz 100 ./output/333SiO2-1-UFF.lammpstrj
dump_modify atom_pos element Si O mass yes
thermo          1000
thermo_style    custom step temp pe ke etotal press vol density

variable up equal 2e-2
variable cfac equal 1.0e-4
variable cunits string GPa

# Define minimization parameters
variable etol equal 0.0
variable ftol equal 1.0e-10
variable maxiter equal 100000
variable maxeval equal 100000
variable dmax equal 1.0e-2

variable temp equal 300.0
variable thermal_damp index 100.0
variable pressure_damp index 500.0

fix relax all box/relax aniso 0.0 vmax 0.001
unfix relax
minimize 0 1e-10 100000 100000
Generated 1 of 1 mixed pair_coeff terms from arithmetic mixing rule
For more information see https://docs.lammps.org/err0027 (src/domain.cpp:1052)
Step          Temp          PotEng         KinEng         TotEng         Press          Volume        Density
0   0              3352.9534      0              3352.9534      288301.81      2983.7905      2.7084871
Loop time of 0.038145 on 1 procs for 136 steps with 243 atoms

Minimization stats:
  Stopping criterion = force tolerance
  Energy initial, next-to-last, final =
  Force two-norm initial, final = 1461.2321 8.7963231e-11
  Force max component initial, final = 99.095905 1.1965165e-11
  Final line search alpha, max atom move = 1 1.1965165e-11
  Iterations, force evaluations = 136 281

# Generating the full routine as described in the paper for UFF
fix nvt_relax   all nvt temp 300 300 100.0
run 100000      # 100 picoseconds
Generated 1 of 1 mixed pair_coeff terms from arithmetic mixing rule
For more information see https://docs.lammps.org/err0027 (src/domain.cpp:1052)
Step          Temp          PotEng         KinEng         TotEng         Press          Volume        Density
136   0              135.19015      0              135.19015     -22241.676      2983.7905      2.7084871
Averages over the last 51 of 102 rows, steps 51000 to 100136:
Temp PotEng KinEng TotEng Press Volume Density
298.881 135.19 215.6 350.79 -18938.7 2983.79 2.70849
Loop time of 12.6591 on 1 procs for 100000 steps with 243 atoms

unfix           nvt_relax

fix npt_relax   all npt temp 300 300 100.0 iso 0 0 500.0
run 100000      # 100 picoseconds
Generated 1 of 1 mixed pair_coeff terms from arithmetic mixing rule
For more information see https://docs.lammps.org/err0027 (src/domain.cpp:1052)
Step          Temp          PotEng         KinEng         TotEng         Press          Volume        Density
100136   284.41515      135.19015      205.16459      340.35474     -19098.679      2983.7905      2.7084871
Averages over the last 51 of 102 rows, steps 151000 to 200136:
Temp PotEng KinEng TotEng Press Volume Density
298.449 131.401 215.288 346.689 -242.907 2940.79 2.74813
Loop time of 14.6608 on 1 procs for 100000 steps with 243 atoms

unfix           npt_relax

# run 100000      # 100 picoseconds
# unfix           nvt_heat
#
# run 100000      # 100 picoseconds
# unfix           npt_heat
#
# run 700000      # 700 picoseconds
# unfix           cooling_npt
#
# run 100000      # 100 picoseconds
# unfix           npt_final

# density computation
variable rho equal density
fix integrate  all npt temp 300 300 100.0 iso 0 0 500.0
fix rho50k all ave/time 10 5000 50000 v_rho mode scalar ave one
run 50000
Generated 1 of 1 mixed pair_coeff terms from arithmetic mixing rule
For more information see https://docs.lammps.org/err0027 (src/domain.cpp:1052)
Step          Temp          PotEng         KinEng         TotEng         Press          Volume        Density
200136   306.96439      133.35201      221.43062      354.78263      1481.2842      2946.8074      2.7424792
Averages over the last 26 of 52 rows, steps 226000 to 250136:
Temp PotEng KinEng TotEng Press Volume Density
298.146 131.968 215.07 347.037 69.1001 2939.43 2.74939
Loop time of 7.34543 on 1 procs for 50000 steps with 243 atoms

unfix integrate
unfix rho50k

# Compute initial state
fix 3 all box/relax  aniso 0.0
minimize 0 1e-10 100000 100000
Generated 1 of 1 mixed pair_coeff terms from arithmetic mixing rule
 (src/min.cpp:222)
For more information see https://docs.lammps.org/err0027 (src/domain.cpp:1052)
Step          Temp          PotEng         KinEng         TotEng         Press          Volume        Density
250136   290.65054      132.32143      209.66252      341.98395      2104.5961      2935.5217      2.7530227
Loop time of 0.0136411 on 1 procs for 65 steps with 243 atoms

Minimization stats:
  Stopping criterion = linesearch alpha is zero
  Energy initial, next-to-last, final =
  Force two-norm initial, final = 971.84022 71.573523
  Force max component initial, final = 839.84335 13.665049
  Final line search alpha, max atom move = 1.7909907e-12 2.4473977e-11
  Iterations, force evaluations = 65 92

variable tmp equal pxx
variable pxx0 equal 225.950655100786
variable tmp equal pyy
variable pyy0 equal 41.0209317206047
variable tmp equal pzz
variable pzz0 equal 8977.83070142796
variable tmp equal pyz
variable pyz0 equal -1045.20319557753
variable tmp equal pxz
variable pxz0 equal -1673.43277857527
variable tmp equal pxy
variable pxy0 equal 164.953324190816

variable tmp equal lx
variable lx0 equal 14.6577951033429
variable tmp equal ly
variable ly0 equal 12.6939689999267
variable tmp equal lz
variable lz0 equal 15.7785534379992

# These formulas define the derivatives w.r.t. strain components
# Constants uses $, variables use v_
variable d1 equal -(v_pxx1-225.950655100786)/(v_delta/v_len0)*0.0001
variable d2 equal -(v_pyy1-41.0209317206047)/(v_delta/v_len0)*0.0001
variable d3 equal -(v_pzz1-8977.83070142796)/(v_delta/v_len0)*0.0001
variable d4 equal -(v_pyz1--1045.20319557753)/(v_delta/v_len0)*0.0001
variable d5 equal -(v_pxz1--1673.43277857527)/(v_delta/v_len0)*0.0001
variable d6 equal -(v_pxy1-164.953324190816)/(v_delta/v_len0)*0.0001

# Write restart
unfix 3
write_restart restart_333SiO2-1-UFF.equil
System init for write_restart ...
Generated 1 of 1 mixed pair_coeff terms from arithmetic mixing rule

# uxx Perturbation

variable dir equal 1
include ./input/displace_333SiO2-1-UFF.mod
variable len0 equal 14.6577951033429

# Reset box and simulation parameters

clear
box tilt large

The 'box' command has been removed and will be ignored

read_restart restart_333SiO2-1-UFF.equil
Reading restart file ...
  restart file = 10 Sep 2025, LAMMPS = 10 Sep 2025
  restoring atom style full from restart
  triclinic box = (0.016752448 0.014535 0.092273281) to (14.674548 12.708504 15.870827) with tilt (-7.3288664 0 0)
  restoring pair style lj/cut from restart
  restoring bond style harmonic from restart
  restoring angle style hybrid from restart
  restoring dihedral style harmonic from restart
  243 atoms
  324 bonds
  648 angles
  972 dihedrals
Finding 1-2 1-3 1-4 neighbors ...
     4 = max # of 1-2 neighbors
     6 = max # of 1-3 neighbors
     8 = max # of special neighbors
  read_restart CPU = 0.001 seconds
include ./input/angles_333SiO2-1-UFF.mod
angle_style hybrid fourier cosine/periodic
angle_coeff 1 fourier 221.735285        0.343737        0.374972        0.281246
angle_coeff 2 cosine/periodic 88.853997              -1               3

# Negative deformation

variable delta equal -0.02*14.6577951033429
variable deltaxy equal -0.02*xy
variable deltaxz equal -0.02*xz
variable deltayz equal -0.02*yz
change_box all x delta 0 -0.293155902066858 xy delta 0.146577328552256 xz delta 0 remap units box
Changing box ...
  triclinic box = (0.016752448 0.014535 0.092273281) to (14.381392 12.708504 15.870827) with tilt (-7.3288664 0 0)
  triclinic box = (0.016752448 0.014535 0.092273281) to (14.381392 12.708504 15.870827) with tilt (-7.1822891 0 0)
  triclinic box = (0.016752448 0.014535 0.092273281) to (14.381392 12.708504 15.870827) with tilt (-7.1822891 0 0)

# Relax atoms positions

minimize 0 1e-10 100000 100000
Generated 1 of 1 mixed pair_coeff terms from arithmetic mixing rule
For more information see https://docs.lammps.org/err0027 (src/domain.cpp:1052)
Step          Temp          E_pair         E_mol          TotEng         Press
250201   290.65054     -514.25822      676.95536      372.35966      43252.503
Loop time of 0.0415497 on 1 procs for 177 steps with 243 atoms

Minimization stats:
  Stopping criterion = force tolerance
  Energy initial, next-to-last, final =
  Force two-norm initial, final = 158.27398 9.8252827e-11
  Force max component initial, final = 13.808449 1.3545609e-11
  Final line search alpha, max atom move = 1 1.3545609e-11
  Iterations, force evaluations = 177 356

# Obtain new stress tensor

variable tmp equal pxx
variable pxx1 equal 48853.9892548225
variable tmp equal pyy
variable pyy1 equal 21509.3734367673
variable tmp equal pzz
variable pzz1 equal 18335.0990762277
variable tmp equal pxy
variable pxy1 equal 188.874342250466
variable tmp equal pxz
variable pxz1 equal -1703.53257445588
variable tmp equal pyz
variable pyz1 equal 3044.1446094433

# Compute elastic constant from pressure tensor

variable C1neg equal 243.140192998609
variable C2neg equal 107.341762525233
variable C3neg equal 46.7863418739987
variable C4neg equal 20.4467390251042
variable C5neg equal -0.15049897940305
variable C6neg equal 0.11960509029825

# Reset box and simulation parameters

clear
box tilt large

The 'box' command has been removed and will be ignored

read_restart restart_333SiO2-1-UFF.equil
Reading restart file ...
  restart file = 10 Sep 2025, LAMMPS = 10 Sep 2025
  restoring atom style full from restart
  triclinic box = (0.016752448 0.014535 0.092273281) to (14.674548 12.708504 15.870827) with tilt (-7.3288664 0 0)
  restoring pair style lj/cut from restart
  restoring bond style harmonic from restart
  restoring angle style hybrid from restart
  restoring dihedral style harmonic from restart
  243 atoms
  324 bonds
  648 angles
  972 dihedrals
Finding 1-2 1-3 1-4 neighbors ...
     4 = max # of 1-2 neighbors
     6 = max # of 1-3 neighbors
     8 = max # of special neighbors
  read_restart CPU = 0.001 seconds
include ./input/angles_333SiO2-1-UFF.mod
angle_style hybrid fourier cosine/periodic
angle_coeff 1 fourier 221.735285        0.343737        0.374972        0.281246
angle_coeff 2 cosine/periodic 88.853997              -1               3

# Positive deformation

variable delta equal 0.02*14.6577951033429
variable deltaxy equal 0.02*xy
variable deltaxz equal 0.02*xz
variable deltayz equal 0.02*yz
change_box all x delta 0 0.293155902066858 xy delta -0.146577328552256 xz delta 0 remap units box
Changing box ...
  triclinic box = (0.016752448 0.014535 0.092273281) to (14.967703 12.708504 15.870827) with tilt (-7.3288664 0 0)
  triclinic box = (0.016752448 0.014535 0.092273281) to (14.967703 12.708504 15.870827) with tilt (-7.4754438 0 0)
  triclinic box = (0.016752448 0.014535 0.092273281) to (14.967703 12.708504 15.870827) with tilt (-7.4754438 0 0)

# Relax atoms positions

minimize 0 1e-10 100000 100000
Generated 1 of 1 mixed pair_coeff terms from arithmetic mixing rule
For more information see https://docs.lammps.org/err0027 (src/domain.cpp:1052)
Step          Temp          E_pair         E_mol          TotEng         Press
250201   290.65054     -534.9371       706.27736      381.00278     -35614.071
Loop time of 0.03823 on 1 procs for 166 steps with 243 atoms

Minimization stats:
  Stopping criterion = force tolerance
  Energy initial, next-to-last, final =
  Force two-norm initial, final = 230.91626 9.794498e-11
  Force max component initial, final = 20.452067 1.3640644e-11
  Final line search alpha, max atom move = 1 1.3640644e-11
  Iterations, force evaluations = 166 334

# Obtain new stress tensor

variable tmp equal pe
variable e1 equal 149.724565410486
variable tmp equal press
variable p1 equal -21106.421896624
variable tmp equal pxx
variable pxx1 equal -37986.3217519472
variable tmp equal pyy
variable pyy1 equal -13344.6056395331
variable tmp equal pzz
variable pzz1 equal -11988.3382983918
variable tmp equal pxy
variable pxy1 equal 181.443948508124
variable tmp equal pxz
variable pxz1 equal -1636.59868238817
variable tmp equal pyz
variable pyz1 equal -4321.82257886662

# Compute elastic constant from pressure tensor

variable C1pos equal 191.06136203524
variable C2pos equal 66.9281328562685
variable C3pos equal 104.830844999099
variable C4pos equal 16.3830969164454
variable C5pos equal -0.184170480935501
variable C6pos equal -0.08245312158654

# Combine positive and negative

variable C11 equal 0.5*(243.140192998609+191.06136203524)
variable C21 equal 0.5*(107.341762525233+66.9281328562685)
variable C31 equal 0.5*(46.7863418739987+104.830844999099)
variable C41 equal 0.5*(20.4467390251042+16.3830969164454)
variable C51 equal 0.5*(-0.15049897940305+-0.184170480935501)
variable C61 equal 0.5*(0.11960509029825+-0.08245312158654)

# Delete dir to make sure it is not reused

variable dir delete

# uyy Perturbation

variable dir equal 2
include ./input/displace_333SiO2-1-UFF.mod
variable len0 equal 12.6939689999267

# Reset box and simulation parameters

clear
box tilt large

The 'box' command has been removed and will be ignored

read_restart restart_333SiO2-1-UFF.equil
Reading restart file ...
  restart file = 10 Sep 2025, LAMMPS = 10 Sep 2025
  restoring atom style full from restart
  triclinic box = (0.016752448 0.014535 0.092273281) to (14.674548 12.708504 15.870827) with tilt (-7.3288664 0 0)
  restoring pair style lj/cut from restart
  restoring bond style harmonic from restart
  restoring angle style hybrid from restart
  restoring dihedral style harmonic from restart
  243 atoms
  324 bonds
  648 angles
  972 dihedrals
Finding 1-2 1-3 1-4 neighbors ...
     4 = max # of 1-2 neighbors
     6 = max # of 1-3 neighbors
     8 = max # of special neighbors
  read_restart CPU = 0.001 seconds
include ./input/angles_333SiO2-1-UFF.mod
angle_style hybrid fourier cosine/periodic
angle_coeff 1 fourier 221.735285        0.343737        0.374972        0.281246
angle_coeff 2 cosine/periodic 88.853997              -1               3

# Negative deformation

variable delta equal -0.02*12.6939689999267
variable deltaxy equal -0.02*xy
variable deltaxz equal -0.02*xz
variable deltayz equal -0.02*yz
change_box all y delta 0 -0.253879379998534 yz delta 0 remap units box
Changing box ...
  triclinic box = (0.016752448 0.014535 0.092273281) to (14.674548 12.454625 15.870827) with tilt (-7.3288664 0 0)
  triclinic box = (0.016752448 0.014535 0.092273281) to (14.674548 12.454625 15.870827) with tilt (-7.3288664 0 0)

# Relax atoms positions

minimize 0 1e-10 100000 100000
Generated 1 of 1 mixed pair_coeff terms from arithmetic mixing rule
For more information see https://docs.lammps.org/err0027 (src/domain.cpp:1052)
Step          Temp          E_pair         E_mol          TotEng         Press
250201   290.65054     -515.02747      676.95078      371.58584      43217.206
Loop time of 0.0463969 on 1 procs for 193 steps with 243 atoms

Minimization stats:
  Stopping criterion = force tolerance
  Energy initial, next-to-last, final =
  Force two-norm initial, final = 158.39237 9.6836326e-11
  Force max component initial, final = 14.84153 1.0624807e-11
  Final line search alpha, max atom move = 1 1.0624807e-11
  Iterations, force evaluations = 193 393

# Obtain new stress tensor

variable tmp equal pxx
variable pxx1 equal 21952.3705443742
variable tmp equal pyy
variable pyy1 equal 48332.3753479161
variable tmp equal pzz
variable pzz1 equal 18271.479172656
variable tmp equal pxy
variable pxy1 equal 188.818857296444
variable tmp equal pxz
variable pxz1 equal -1703.51829399092
variable tmp equal pyz
variable pyz1 equal -5251.58096918166

# Compute elastic constant from pressure tensor

variable C1neg equal 108.632099446367
variable C2neg equal 241.456772080978
variable C3neg equal 46.4682423561402
variable C4neg equal -21.0318888680207
variable C5neg equal -0.15042757707825
variable C6neg equal 0.11932766552814

# Reset box and simulation parameters

clear
box tilt large

The 'box' command has been removed and will be ignored

read_restart restart_333SiO2-1-UFF.equil
Reading restart file ...
  restart file = 10 Sep 2025, LAMMPS = 10 Sep 2025
  restoring atom style full from restart
  triclinic box = (0.016752448 0.014535 0.092273281) to (14.674548 12.708504 15.870827) with tilt (-7.3288664 0 0)
  restoring pair style lj/cut from restart
  restoring bond style harmonic from restart
  restoring angle style hybrid from restart
  restoring dihedral style harmonic from restart
  243 atoms
  324 bonds
  648 angles
  972 dihedrals
Finding 1-2 1-3 1-4 neighbors ...
     4 = max # of 1-2 neighbors
     6 = max # of 1-3 neighbors
     8 = max # of special neighbors
  read_restart CPU = 0.001 seconds
include ./input/angles_333SiO2-1-UFF.mod
angle_style hybrid fourier cosine/periodic
angle_coeff 1 fourier 221.735285        0.343737        0.374972        0.281246
angle_coeff 2 cosine/periodic 88.853997              -1               3

# Positive deformation

variable delta equal 0.02*12.6939689999267
variable deltaxy equal 0.02*xy
variable deltaxz equal 0.02*xz
variable deltayz equal 0.02*yz
change_box all y delta 0 0.253879379998534 yz delta 0 remap units box
Changing box ...
  triclinic box = (0.016752448 0.014535 0.092273281) to (14.674548 12.962383 15.870827) with tilt (-7.3288664 0 0)
  triclinic box = (0.016752448 0.014535 0.092273281) to (14.674548 12.962383 15.870827) with tilt (-7.3288664 0 0)

# Relax atoms positions

minimize 0 1e-10 100000 100000
Generated 1 of 1 mixed pair_coeff terms from arithmetic mixing rule
For more information see https://docs.lammps.org/err0027 (src/domain.cpp:1052)
Step          Temp          E_pair         E_mol          TotEng         Press
250201   290.65054     -541.08536      706.28209      374.85925     -35819.654
Loop time of 0.0394148 on 1 procs for 168 steps with 243 atoms

Minimization stats:
  Stopping criterion = force tolerance
  Energy initial, next-to-last, final =
  Force two-norm initial, final = 230.07572 9.9409354e-11
  Force max component initial, final = 20.453504 1.3312268e-11
  Final line search alpha, max atom move = 1 1.3312268e-11
  Iterations, force evaluations = 168 342

# Obtain new stress tensor

variable tmp equal pe
variable e1 equal 142.132956791071
variable tmp equal press
variable p1 equal -21322.4947834224
variable tmp equal pxx
variable pxx1 equal -13339.1120987687
variable tmp equal pyy
variable pyy1 equal -38519.006397505
variable tmp equal pzz
variable pzz1 equal -12109.3658539937
variable tmp equal pxy
variable pxy1 equal 181.478498231866
variable tmp equal pxz
variable pxz1 equal -1636.60841888559
variable tmp equal pyz
variable pyz1 equal 2158.79464446479

# Compute elastic constant from pressure tensor

variable C1pos equal 67.8253137693474
variable C2pos equal 192.800136646128
variable C3pos equal 105.435982777108
variable C4pos equal -16.0199892002116
variable C5pos equal -0.1841217984484
variable C6pos equal -0.08262587020525

# Combine positive and negative

variable C12 equal 0.5*(108.632099446367+67.8253137693474)
variable C22 equal 0.5*(241.456772080978+192.800136646128)
variable C32 equal 0.5*(46.4682423561402+105.435982777108)
variable C42 equal 0.5*(-21.0318888680207+-16.0199892002116)
variable C52 equal 0.5*(-0.15042757707825+-0.1841217984484)
variable C62 equal 0.5*(0.11932766552814+-0.08262587020525)

# Delete dir to make sure it is not reused

variable dir delete

# uzz Perturbation

variable dir equal 3
include ./input/displace_333SiO2-1-UFF.mod
variable len0 equal 15.7785534379992

# Reset box and simulation parameters

clear
box tilt large

The 'box' command has been removed and will be ignored

read_restart restart_333SiO2-1-UFF.equil
Reading restart file ...
  restart file = 10 Sep 2025, LAMMPS = 10 Sep 2025
  restoring atom style full from restart
  triclinic box = (0.016752448 0.014535 0.092273281) to (14.674548 12.708504 15.870827) with tilt (-7.3288664 0 0)
  restoring pair style lj/cut from restart
  restoring bond style harmonic from restart
  restoring angle style hybrid from restart
  restoring dihedral style harmonic from restart
  243 atoms
  324 bonds
  648 angles
  972 dihedrals
Finding 1-2 1-3 1-4 neighbors ...
     4 = max # of 1-2 neighbors
     6 = max # of 1-3 neighbors
     8 = max # of special neighbors
  read_restart CPU = 0.001 seconds
include ./input/angles_333SiO2-1-UFF.mod
angle_style hybrid fourier cosine/periodic
angle_coeff 1 fourier 221.735285        0.343737        0.374972        0.281246
angle_coeff 2 cosine/periodic 88.853997              -1               3

# Negative deformation

variable delta equal -0.02*15.7785534379992
variable deltaxy equal -0.02*xy
variable deltaxz equal -0.02*xz
variable deltayz equal -0.02*yz
change_box all z delta 0 -0.315571068759984 remap units box
Changing box ...
  triclinic box = (0.016752448 0.014535 0.092273281) to (14.674548 12.708504 15.555256) with tilt (-7.3288664 0 0)

# Relax atoms positions

minimize 0 1e-10 100000 100000
Generated 1 of 1 mixed pair_coeff terms from arithmetic mixing rule
For more information see https://docs.lammps.org/err0027 (src/domain.cpp:1052)
Step          Temp          E_pair         E_mol          TotEng         Press
250201   290.65054     -489.02222      659.89214      380.53245      46949.967
Loop time of 0.0464162 on 1 procs for 195 steps with 243 atoms

Minimization stats:
  Stopping criterion = force tolerance
  Energy initial, next-to-last, final =
  Force two-norm initial, final = 252.05903 6.2139968e-11
  Force max component initial, final = 18.125263 8.3524299e-12
  Final line search alpha, max atom move = 1 8.3524299e-12
  Iterations, force evaluations = 195 397

# Obtain new stress tensor

variable tmp equal pxx
variable pxx1 equal 20565.714028755
variable tmp equal pyy
variable pyy1 equal 20382.5859428107
variable tmp equal pzz
variable pzz1 equal 65984.209516286
variable tmp equal pxy
variable pxy1 equal 188.922687380028
variable tmp equal pxz
variable pxz1 equal -1703.57935617542
variable tmp equal pyz
variable pyz1 equal -1059.76763059697

# Compute elastic constant from pressure tensor

variable C1neg equal 101.698816868271
variable C2neg equal 101.70782505545
variable C3neg equal 285.03189407429
variable C4neg equal -0.0728221750972
variable C5neg equal -0.150732888000749
variable C6neg equal 0.11984681594606

# Reset box and simulation parameters

clear
box tilt large

The 'box' command has been removed and will be ignored

read_restart restart_333SiO2-1-UFF.equil
Reading restart file ...
  restart file = 10 Sep 2025, LAMMPS = 10 Sep 2025
  restoring atom style full from restart
  triclinic box = (0.016752448 0.014535 0.092273281) to (14.674548 12.708504 15.870827) with tilt (-7.3288664 0 0)
  restoring pair style lj/cut from restart
  restoring bond style harmonic from restart
  restoring angle style hybrid from restart
  restoring dihedral style harmonic from restart
  243 atoms
  324 bonds
  648 angles
  972 dihedrals
Finding 1-2 1-3 1-4 neighbors ...
     4 = max # of 1-2 neighbors
     6 = max # of 1-3 neighbors
     8 = max # of special neighbors
  read_restart CPU = 0.001 seconds
include ./input/angles_333SiO2-1-UFF.mod
angle_style hybrid fourier cosine/periodic
angle_coeff 1 fourier 221.735285        0.343737        0.374972        0.281246
angle_coeff 2 cosine/periodic 88.853997              -1               3

# Positive deformation

variable delta equal 0.02*15.7785534379992
variable deltaxy equal 0.02*xy
variable deltaxz equal 0.02*xz
variable deltayz equal 0.02*yz
change_box all z delta 0 0.315571068759984 remap units box
Changing box ...
  triclinic box = (0.016752448 0.014535 0.092273281) to (14.674548 12.708504 16.186398) with tilt (-7.3288664 0 0)

# Relax atoms positions

minimize 0 1e-10 100000 100000
Generated 1 of 1 mixed pair_coeff terms from arithmetic mixing rule
For more information see https://docs.lammps.org/err0027 (src/domain.cpp:1052)
Step          Temp          E_pair         E_mol          TotEng         Press
250201   290.65054     -565.00877      724.98186      369.63561     -39145.342
Loop time of 0.0439687 on 1 procs for 184 steps with 243 atoms

Minimization stats:
  Stopping criterion = force tolerance
  Energy initial, next-to-last, final =
  Force two-norm initial, final = 134.43959 7.3551863e-11
  Force max component initial, final = 8.8172451 9.2836017e-12
  Final line search alpha, max atom move = 1 9.2836017e-12
  Iterations, force evaluations = 184 379

# Obtain new stress tensor

variable tmp equal pe
variable e1 equal 150.43374096377
variable tmp equal press
variable p1 equal -24409.3506152644
variable tmp equal pxx
variable pxx1 equal -10200.4560708114
variable tmp equal pyy
variable pyy1 equal -10376.1268774321
variable tmp equal pzz
variable pzz1 equal -52651.4688975497
variable tmp equal pxy
variable pxy1 equal 181.434358035937
variable tmp equal pxz
variable pxz1 equal -1636.56796272942
variable tmp equal pyz
variable pyz1 equal -1017.85405329404

# Compute elastic constant from pressure tensor

variable C1pos equal 52.1320336295609
variable C2pos equal 52.0857390457635
variable C3pos equal 308.146497994888
variable C4pos equal -0.136745711417451
variable C5pos equal -0.18432407922925
variable C6pos equal -0.082405169225605

# Combine positive and negative

variable C13 equal 0.5*(101.698816868271+52.1320336295609)
variable C23 equal 0.5*(101.70782505545+52.0857390457635)
variable C33 equal 0.5*(285.03189407429+308.146497994888)
variable C43 equal 0.5*(-0.0728221750972+-0.136745711417451)
variable C53 equal 0.5*(-0.150732888000749+-0.18432407922925)
variable C63 equal 0.5*(0.11984681594606+-0.082405169225605)

# Delete dir to make sure it is not reused

variable dir delete

# uyz Perturbation

variable dir equal 4
include ./input/displace_333SiO2-1-UFF.mod
variable len0 equal 15.7785534379992

# Reset box and simulation parameters

clear
box tilt large

The 'box' command has been removed and will be ignored

read_restart restart_333SiO2-1-UFF.equil
Reading restart file ...
  restart file = 10 Sep 2025, LAMMPS = 10 Sep 2025
  restoring atom style full from restart
  triclinic box = (0.016752448 0.014535 0.092273281) to (14.674548 12.708504 15.870827) with tilt (-7.3288664 0 0)
  restoring pair style lj/cut from restart
  restoring bond style harmonic from restart
  restoring angle style hybrid from restart
  restoring dihedral style harmonic from restart
  243 atoms
  324 bonds
  648 angles
  972 dihedrals
Finding 1-2 1-3 1-4 neighbors ...
     4 = max # of 1-2 neighbors
     6 = max # of 1-3 neighbors
     8 = max # of special neighbors
  read_restart CPU = 0.001 seconds
include ./input/angles_333SiO2-1-UFF.mod
angle_style hybrid fourier cosine/periodic
angle_coeff 1 fourier 221.735285        0.343737        0.374972        0.281246
angle_coeff 2 cosine/periodic 88.853997              -1               3

# Negative deformation

variable delta equal -0.02*15.7785534379992
variable deltaxy equal -0.02*xy
variable deltaxz equal -0.02*xz
variable deltayz equal -0.02*yz
change_box all yz delta -0.315571068759984 remap units box
Changing box ...
  triclinic box = (0.016752448 0.014535 0.092273281) to (14.674548 12.708504 15.870827) with tilt (-7.3288664 0 -0.31557107)

# Relax atoms positions

minimize 0 1e-10 100000 100000
Generated 1 of 1 mixed pair_coeff terms from arithmetic mixing rule
For more information see https://docs.lammps.org/err0027 (src/domain.cpp:1052)
Step          Temp          E_pair         E_mol          TotEng         Press
250201   290.65054     -533.03011      674.09241      350.72482      2641.9349
Loop time of 0.00799097 on 1 procs for 4 steps with 243 atoms

Minimization stats:
  Stopping criterion = linesearch alpha is zero
  Energy initial, next-to-last, final =
  Force two-norm initial, final = 138.05127 17.752283
  Force max component initial, final = 12.143488 1.4636432
  Final line search alpha, max atom move = 3.1815219e-11 4.6566129e-11
  Iterations, force evaluations = 4 67

# Obtain new stress tensor

variable tmp equal pxx
variable pxx1 equal 7604.24826924799
variable tmp equal pyy
variable pyy1 equal -1868.56223805916
variable tmp equal pzz
variable pzz1 equal 3375.85126043405
variable tmp equal pxy
variable pxy1 equal 180.419813558689
variable tmp equal pxz
variable pxz1 equal -1668.07810953566
variable tmp equal pyz
variable pyz1 equal 24219.4056086142

# Compute elastic constant from pressure tensor

variable C1neg equal 36.891488070736
variable C2neg equal -9.54791584889882
variable C3neg equal -28.0098972049696
variable C4neg equal 126.323044020959
variable C5neg equal 0.0267733451980507
variable C6neg equal 0.0773324468393649

# Reset box and simulation parameters

clear
box tilt large

The 'box' command has been removed and will be ignored

read_restart restart_333SiO2-1-UFF.equil
Reading restart file ...
  restart file = 10 Sep 2025, LAMMPS = 10 Sep 2025
  restoring atom style full from restart
  triclinic box = (0.016752448 0.014535 0.092273281) to (14.674548 12.708504 15.870827) with tilt (-7.3288664 0 0)
  restoring pair style lj/cut from restart
  restoring bond style harmonic from restart
  restoring angle style hybrid from restart
  restoring dihedral style harmonic from restart
  243 atoms
  324 bonds
  648 angles
  972 dihedrals
Finding 1-2 1-3 1-4 neighbors ...
     4 = max # of 1-2 neighbors
     6 = max # of 1-3 neighbors
     8 = max # of special neighbors
  read_restart CPU = 0.001 seconds
include ./input/angles_333SiO2-1-UFF.mod
angle_style hybrid fourier cosine/periodic
angle_coeff 1 fourier 221.735285        0.343737        0.374972        0.281246
angle_coeff 2 cosine/periodic 88.853997              -1               3

# Positive deformation

variable delta equal 0.02*15.7785534379992
variable deltaxy equal 0.02*xy
variable deltaxz equal 0.02*xz
variable deltayz equal 0.02*yz
change_box all yz delta 0.315571068759984 remap units box
Changing box ...
  triclinic box = (0.016752448 0.014535 0.092273281) to (14.674548 12.708504 15.870827) with tilt (-7.3288664 0 0.31557107)

# Relax atoms positions

minimize 0 1e-10 100000 100000
Generated 1 of 1 mixed pair_coeff terms from arithmetic mixing rule
For more information see https://docs.lammps.org/err0027 (src/domain.cpp:1052)
Step          Temp          E_pair         E_mol          TotEng         Press
250201   290.65054     -523.01403      674.12482      360.77331      3015.7059
Loop time of 0.00777248 on 1 procs for 4 steps with 243 atoms

Minimization stats:
  Stopping criterion = linesearch alpha is zero
  Energy initial, next-to-last, final =
  Force two-norm initial, final = 138.53681 10.462253
  Force max component initial, final = 11.703431 0.8190883
  Final line search alpha, max atom move = 8.7984884e-11 7.206739e-11
  Iterations, force evaluations = 4 66

# Obtain new stress tensor

variable tmp equal pe
variable e1 equal 142.774848441533
variable tmp equal press
variable p1 equal 3323.2502402856
variable tmp equal pxx
variable pxx1 equal -1396.84620719931
variable tmp equal pyy
variable pyy1 equal 8366.40057185997
variable tmp equal pzz
variable pzz1 equal 3000.19635619615
variable tmp equal pxy
variable pxy1 equal 152.558624310483
variable tmp equal pxz
variable pxz1 equal -1664.66158605371
variable tmp equal pyz
variable pyz1 equal -26362.3372609191

# Compute elastic constant from pressure tensor

variable C1pos equal 8.11398431150048
variable C2pos equal -41.6268982006968
variable C3pos equal 29.8881717261591
variable C4pos equal 126.585670326708
variable C5pos equal -0.0438559626078006
variable C6pos equal 0.061973499401665

# Combine positive and negative

variable C14 equal 0.5*(36.891488070736+8.11398431150048)
variable C24 equal 0.5*(-9.54791584889882+-41.6268982006968)
variable C34 equal 0.5*(-28.0098972049696+29.8881717261591)
variable C44 equal 0.5*(126.323044020959+126.585670326708)
variable C54 equal 0.5*(0.0267733451980507+-0.0438559626078006)
variable C64 equal 0.5*(0.0773324468393649+0.061973499401665)

# Delete dir to make sure it is not reused

variable dir delete

# uxz Perturbation

variable dir equal 5
include ./input/displace_333SiO2-1-UFF.mod
variable len0 equal 15.7785534379992

# Reset box and simulation parameters

clear
box tilt large

The 'box' command has been removed and will be ignored

read_restart restart_333SiO2-1-UFF.equil
Reading restart file ...
  restart file = 10 Sep 2025, LAMMPS = 10 Sep 2025
  restoring atom style full from restart
  triclinic box = (0.016752448 0.014535 0.092273281) to (14.674548 12.708504 15.870827) with tilt (-7.3288664 0 0)
  restoring pair style lj/cut from restart
  restoring bond style harmonic from restart
  restoring angle style hybrid from restart
  restoring dihedral style harmonic from restart
  243 atoms
  324 bonds
  648 angles
  972 dihedrals
Finding 1-2 1-3 1-4 neighbors ...
     4 = max # of 1-2 neighbors
     6 = max # of 1-3 neighbors
     8 = max # of special neighbors
  read_restart CPU = 0.000 seconds
include ./input/angles_333SiO2-1-UFF.mod
angle_style hybrid fourier cosine/periodic
angle_coeff 1 fourier 221.735285        0.343737        0.374972        0.281246
angle_coeff 2 cosine/periodic 88.853997              -1               3

# Negative deformation

variable delta equal -0.02*15.7785534379992
variable deltaxy equal -0.02*xy
variable deltaxz equal -0.02*xz
variable deltayz equal -0.02*yz
change_box all xz delta -0.315571068759984 remap units box
Changing box ...
  triclinic box = (0.016752448 0.014535 0.092273281) to (14.674548 12.708504 15.870827) with tilt (-7.3288664 -0.31557107 0)

# Relax atoms positions

minimize 0 1e-10 100000 100000
Generated 1 of 1 mixed pair_coeff terms from arithmetic mixing rule
For more information see https://docs.lammps.org/err0027 (src/domain.cpp:1052)
Step          Temp          E_pair         E_mol          TotEng         Press
250201   290.65054     -531.39774      674.10274      352.36752      2708.9653
Loop time of 0.00800381 on 1 procs for 1 steps with 243 atoms

Minimization stats:
  Stopping criterion = linesearch alpha is zero
  Energy initial, next-to-last, final =
  Force two-norm initial, final = 138.03732 138.03732
  Force max component initial, final = 10.671426 10.671426
  Final line search alpha, max atom move = 5.4545342e-13 5.8207661e-12
  Iterations, force evaluations = 1 67

# Obtain new stress tensor

variable tmp equal pxx
variable pxx1 equal -792.593549381339
variable tmp equal pyy
variable pyy1 equal 53.5777398297183
variable tmp equal pzz
variable pzz1 equal 8865.91166776193
variable tmp equal pxy
variable pxy1 equal 4607.42577667191
variable tmp equal pxz
variable pxz1 equal 35754.2872687628
variable tmp equal pyz
variable pyz1 equal -898.886721047603

# Compute elastic constant from pressure tensor

variable C1neg equal -5.09272102241063
variable C2neg equal 0.062784040545568
variable C3neg equal -0.559595168330152
variable C4neg equal 0.731582372649635
variable C5neg equal 187.13860023669
variable C6neg equal 22.2123622624055

# Reset box and simulation parameters

clear
box tilt large

The 'box' command has been removed and will be ignored

read_restart restart_333SiO2-1-UFF.equil
Reading restart file ...
  restart file = 10 Sep 2025, LAMMPS = 10 Sep 2025
  restoring atom style full from restart
  triclinic box = (0.016752448 0.014535 0.092273281) to (14.674548 12.708504 15.870827) with tilt (-7.3288664 0 0)
  restoring pair style lj/cut from restart
  restoring bond style harmonic from restart
  restoring angle style hybrid from restart
  restoring dihedral style harmonic from restart
  243 atoms
  324 bonds
  648 angles
  972 dihedrals
Finding 1-2 1-3 1-4 neighbors ...
     4 = max # of 1-2 neighbors
     6 = max # of 1-3 neighbors
     8 = max # of special neighbors
  read_restart CPU = 0.001 seconds
include ./input/angles_333SiO2-1-UFF.mod
angle_style hybrid fourier cosine/periodic
angle_coeff 1 fourier 221.735285        0.343737        0.374972        0.281246
angle_coeff 2 cosine/periodic 88.853997              -1               3

# Positive deformation

variable delta equal 0.02*15.7785534379992
variable deltaxy equal 0.02*xy
variable deltaxz equal 0.02*xz
variable deltayz equal 0.02*yz
change_box all xz delta 0.315571068759984 remap units box
Changing box ...
  triclinic box = (0.016752448 0.014535 0.092273281) to (14.674548 12.708504 15.870827) with tilt (-7.3288664 0.31557107 0)

# Relax atoms positions

minimize 0 1e-10 100000 100000
Generated 1 of 1 mixed pair_coeff terms from arithmetic mixing rule
For more information see https://docs.lammps.org/err0027 (src/domain.cpp:1052)
Step          Temp          E_pair         E_mol          TotEng         Press
250201   290.65054     -531.2447       674.11401      352.53183      2713.3931
Loop time of 0.00789547 on 1 procs for 1 steps with 243 atoms

Minimization stats:
  Stopping criterion = linesearch alpha is zero
  Energy initial, next-to-last, final =
  Force two-norm initial, final = 138.06957 138.06957
  Force max component initial, final = 10.859894 10.859894
  Final line search alpha, max atom move = 5.3598738e-13 5.8207661e-12
  Iterations, force evaluations = 1 67

# Obtain new stress tensor

variable tmp equal pe
variable e1 equal 142.869307498736
variable tmp equal press
variable p1 equal 2713.39312307053
variable tmp equal pxx
variable pxx1 equal -780.509300831231
variable tmp equal pyy
variable pyy1 equal 57.4659983005836
variable tmp equal pzz
variable pzz1 equal 8863.22267174225
variable tmp equal pxy
variable pxy1 equal -4289.8741944726
variable tmp equal pxz
variable pxz1 equal -39089.7952499856
variable tmp equal pyz
variable pyz1 equal -901.864120803837

# Compute elastic constant from pressure tensor

variable C1pos equal 5.03229977966009
variable C2pos equal -0.0822253328998945
variable C3pos equal 0.573040148428545
variable C4pos equal -0.716695373868466
variable C5pos equal 187.081812357052
variable C6pos equal 22.2741375933171

# Combine positive and negative

variable C15 equal 0.5*(-5.09272102241063+5.03229977966009)
variable C25 equal 0.5*(0.062784040545568+-0.0822253328998945)
variable C35 equal 0.5*(-0.559595168330152+0.573040148428545)
variable C45 equal 0.5*(0.731582372649635+-0.716695373868466)
variable C55 equal 0.5*(187.13860023669+187.081812357052)
variable C65 equal 0.5*(22.2123622624055+22.2741375933171)

# Delete dir to make sure it is not reused

variable dir delete

# uxy Perturbation

variable dir equal 6
include ./input/displace_333SiO2-1-UFF.mod
variable len0 equal 12.6939689999267

# Reset box and simulation parameters

clear
box tilt large

The 'box' command has been removed and will be ignored

read_restart restart_333SiO2-1-UFF.equil
Reading restart file ...
  restart file = 10 Sep 2025, LAMMPS = 10 Sep 2025
  restoring atom style full from restart
  triclinic box = (0.016752448 0.014535 0.092273281) to (14.674548 12.708504 15.870827) with tilt (-7.3288664 0 0)
  restoring pair style lj/cut from restart
  restoring bond style harmonic from restart
  restoring angle style hybrid from restart
  restoring dihedral style harmonic from restart
  243 atoms
  324 bonds
  648 angles
  972 dihedrals
Finding 1-2 1-3 1-4 neighbors ...
     4 = max # of 1-2 neighbors
     6 = max # of 1-3 neighbors
     8 = max # of special neighbors
  read_restart CPU = 0.001 seconds
include ./input/angles_333SiO2-1-UFF.mod
angle_style hybrid fourier cosine/periodic
angle_coeff 1 fourier 221.735285        0.343737        0.374972        0.281246
angle_coeff 2 cosine/periodic 88.853997              -1               3

# Negative deformation

variable delta equal -0.02*12.6939689999267
variable deltaxy equal -0.02*xy
variable deltaxz equal -0.02*xz
variable deltayz equal -0.02*yz
change_box all xy delta -0.253879379998534 remap units box
Changing box ...
  triclinic box = (0.016752448 0.014535 0.092273281) to (14.674548 12.708504 15.870827) with tilt (-7.5827458 0 0)

# Relax atoms positions

minimize 0 1e-10 100000 100000
Generated 1 of 1 mixed pair_coeff terms from arithmetic mixing rule
For more information see https://docs.lammps.org/err0027 (src/domain.cpp:1052)
Step          Temp          E_pair         E_mol          TotEng         Press
250201   290.65054     -526.46452      672.55995      355.75795      2882.9992
Loop time of 0.0405011 on 1 procs for 171 steps with 243 atoms

Minimization stats:
  Stopping criterion = force tolerance
  Energy initial, next-to-last, final =
  Force two-norm initial, final = 151.24588 9.4515136e-11
  Force max component initial, final = 12.880355 1.1908696e-11
  Final line search alpha, max atom move = 1 1.1908696e-11
  Iterations, force evaluations = 171 342

# Obtain new stress tensor

variable tmp equal pxx
variable pxx1 equal 3613.08572240429
variable tmp equal pyy
variable pyy1 equal 3260.04600889847
variable tmp equal pzz
variable pzz1 equal 2156.20626952259
variable tmp equal pxy
variable pxy1 equal 12849.88285737
variable tmp equal pxz
variable pxz1 equal 2094.0145840471
variable tmp equal pyz
variable pyz1 equal -1046.33380617483

# Compute elastic constant from pressure tensor

variable C1neg equal 16.9356753365175
variable C2neg equal 16.0951253858893
variable C3neg equal -34.1081221595269
variable C4neg equal -0.00565305298649946
variable C5neg equal 18.8372368131118
variable C6neg equal 63.4246476658959

# Reset box and simulation parameters

clear
box tilt large

The 'box' command has been removed and will be ignored

read_restart restart_333SiO2-1-UFF.equil
Reading restart file ...
  restart file = 10 Sep 2025, LAMMPS = 10 Sep 2025
  restoring atom style full from restart
  triclinic box = (0.016752448 0.014535 0.092273281) to (14.674548 12.708504 15.870827) with tilt (-7.3288664 0 0)
  restoring pair style lj/cut from restart
  restoring bond style harmonic from restart
  restoring angle style hybrid from restart
  restoring dihedral style harmonic from restart
  243 atoms
  324 bonds
  648 angles
  972 dihedrals
Finding 1-2 1-3 1-4 neighbors ...
     4 = max # of 1-2 neighbors
     6 = max # of 1-3 neighbors
     8 = max # of special neighbors
  read_restart CPU = 0.001 seconds
include ./input/angles_333SiO2-1-UFF.mod
angle_style hybrid fourier cosine/periodic
angle_coeff 1 fourier 221.735285        0.343737        0.374972        0.281246
angle_coeff 2 cosine/periodic 88.853997              -1               3

# Positive deformation

variable delta equal 0.02*12.6939689999267
variable deltaxy equal 0.02*xy
variable deltaxz equal 0.02*xz
variable deltayz equal 0.02*yz
change_box all xy delta 0.253879379998534 remap units box
Changing box ...
  triclinic box = (0.016752448 0.014535 0.092273281) to (14.674548 12.708504 15.870827) with tilt (-7.074987 0 0)

# Relax atoms positions

minimize 0 1e-10 100000 100000
Generated 1 of 1 mixed pair_coeff terms from arithmetic mixing rule
For more information see https://docs.lammps.org/err0027 (src/domain.cpp:1052)
Step          Temp          E_pair         E_mol          TotEng         Press
250201   290.65054     -526.14706      672.59746      356.11292      2894.3423
Loop time of 0.0400877 on 1 procs for 171 steps with 243 atoms

Minimization stats:
  Stopping criterion = force tolerance
  Energy initial, next-to-last, final =
  Force two-norm initial, final = 151.38739 8.1409343e-11
  Force max component initial, final = 12.797168 9.8100417e-12
  Final line search alpha, max atom move = 1 9.8100417e-12
  Iterations, force evaluations = 171 342

# Obtain new stress tensor

variable tmp equal pe
variable e1 equal 135.303380751069
variable tmp equal press
variable p1 equal 3009.76544865718
variable tmp equal pxx
variable pxx1 equal 3613.00057838819
variable tmp equal pyy
variable pyy1 equal 3260.1666460432
variable tmp equal pzz
variable pzz1 equal 2156.12912154015
variable tmp equal pxy
variable pxy1 equal -12479.7208447181
variable tmp equal pxz
variable pxz1 equal -5432.79964414451
variable tmp equal pyz
variable pyz1 equal -1046.26085213049

# Compute elastic constant from pressure tensor

variable C1pos equal -16.935249616437
variable C2pos equal -16.095728571613
variable C3pos equal 34.108507899439
variable C4pos equal 0.00528828276479999
variable C5pos equal 18.7968343278462
variable C6pos equal 63.2233708445446

# Combine positive and negative

variable C16 equal 0.5*(16.9356753365175+-16.935249616437)
variable C26 equal 0.5*(16.0951253858893+-16.095728571613)
variable C36 equal 0.5*(-34.1081221595269+34.108507899439)
variable C46 equal 0.5*(-0.00565305298649946+0.00528828276479999)
variable C56 equal 0.5*(18.8372368131118+18.7968343278462)
variable C66 equal 0.5*(63.4246476658959+63.2233708445446)

# Delete dir to make sure it is not reused

variable dir delete

# Output final values

variable C11all equal 217.100777516924
variable C22all equal 217.128454363553
variable C33all equal 296.589196034589

variable C12all equal 0.5*(88.2287066078572+87.1349476907507)
variable C13all equal 0.5*(76.915425248916+75.8085934365488)
variable C23all equal 0.5*(76.8967820506068+75.9521125666241)

variable C44all equal 126.454357173834
variable C55all equal 187.110206296871
variable C66all equal 63.3240092552202

variable C14all equal 0.5*(22.5027361911182+18.4149179707748)
variable C15all equal 0.5*(-0.0302106213752698+-0.167334730169275)
variable C16all equal 0.5*(0.000212860040250007+0.018575984355855)

variable C24all equal 0.5*(-25.5874070247978+-18.5259390341161)
variable C25all equal 0.5*(-0.00972064617716325+-0.167274687763325)
variable C26all equal 0.5*(-0.000301592861850608+0.018350897661445)

variable C34all equal 0.5*(0.93913726059475+-0.104783943257326)
variable C35all equal 0.5*(0.00672249004919651+-0.167528483615)
variable C36all equal 0.5*(0.000192869956048725+0.0187208233602275)

variable C45all equal 0.5*(0.00744349939058447+-0.00854130870487495)
variable C46all equal 0.5*(-0.000182385110849735+0.069652973120515)
variable C56all equal 0.5*(18.817035570479+22.2432499278613)

# Average moduli for cubic crystals

variable C11cubic equal (217.100777516924+217.128454363553+296.589196034589)/3.0
variable C12cubic equal (87.681827149304+76.3620093427324+76.4244473086154)/3.0
variable C44cubic equal (126.454357173834+187.110206296871+63.3240092552202)/3.0

variable bulkmodulus equal (243.606142638355+2*80.1560946002173)/3.0
variable shearmodulus1 equal 125.629524241975
variable shearmodulus2 equal (243.606142638355-80.1560946002173)/2.0
variable poissonratio equal 1.0/(1.0+243.606142638355/80.1560946002173)

Elastic Constant 1 1 = 217.100777516924
Elastic Constant 2 2 = 217.128454363553
Elastic Constant 3 3 = 296.589196034589

Elastic Constant 1 2 = 87.681827149304
Elastic Constant 1 3 = 76.3620093427324
Elastic Constant 2 3 = 76.4244473086154

Elastic Constant 4 4 = 126.454357173834
Elastic Constant 5 5 = 187.110206296871
Elastic Constant 6 6 = 63.3240092552202

Elastic Constant 1 4 = 20.4588270809465
Elastic Constant 1 5 = -0.0987726757722724
Elastic Constant 1 6 = 0.0093944221980525

Elastic Constant 2 4 = -22.0566730294569
Elastic Constant 2 5 = -0.0884976669702441
Elastic Constant 2 6 = 0.0090246523997972

Elastic Constant 3 4 = 0.417176658668712
Elastic Constant 3 5 = -0.0804029967829017
Elastic Constant 3 6 = 0.00945684665813811

Elastic Constant 4 5 = -0.000548904657145239
Elastic Constant 4 6 = 0.0347352940048326
Elastic Constant 5 6 = 20.5301427491701

Bulk Modulus = 134.639443946263 GPa
Shear Modulus 1 = 125.629524241975 GPa
Shear Modulus 2 = 81.7250240190689 GPa
Poisson Ratio = 0.247577034566734

variable rho equal density
density (g/cm^3) = 2.7527186116241
