units           real
atom_style      full
boundary        p p p

pair_style      lj/cut 5.000
bond_style      harmonic
angle_style     hybrid fourier cosine/periodic
dihedral_style  harmonic

dielectric      1.0
special_bonds   lj/coul 0.0 0.0 1.0
pair_modify     tail yes mix arithmetic
box tilt        large

The 'box' command has been removed and will be ignored

read_data       ./dat/data.333U-50C-20-vasp
Reading data file ...
  triclinic box = (0 0 0) to (15.238206 14.502811 17.008496) with tilt (-6.262741 -0.448186 -0.641994)
  reading atoms ...
  350 atoms
  scanning bonds ...
  scanning angles ...
  scanning dihedrals ...
  triclinic box = (0 0 0) to (15.238206 14.502811 17.008496) with tilt (-6.262741 -0.448186 -0.641994)
  reading bonds ...
  375 bonds
  reading angles ...
  709 angles
  reading dihedrals ...
  879 dihedrals
Finding 1-2 1-3 1-4 neighbors ...
     4 = max # of 1-2 neighbors
    10 = max # of 1-3 neighbors
    14 = max # of special neighbors

#### Atom Groupings ####
group           fram     id   1:350
350 atoms in group fram
#### END Atom Groupings ####

compute am all property/atom mass
dump        atom_pos all extxyz 100 ./output/333U-50C-20-vasp.lammpstrj
dump_modify atom_pos element Si C H O mass yes
thermo          1000
thermo_style    custom step temp pe ke etotal press vol density

variable up equal 2e-2
variable cfac equal 1.0e-4
variable cunits string GPa

# Define minimization parameters
variable etol equal 0.0
variable ftol equal 1.0e-10
variable maxiter equal 100000
variable maxeval equal 100000
variable dmax equal 1.0e-2

variable temp equal 300.0
variable thermal_damp index 100.0
variable pressure_damp index 500.0

fix relax all box/relax aniso 0.0 vmax 0.001
unfix relax
minimize 0 1e-10 100000 100000
Generated 6 of 6 mixed pair_coeff terms from arithmetic mixing rule
For more information see https://docs.lammps.org/err0027 (src/domain.cpp:1052)
Step          Temp          PotEng         KinEng         TotEng         Press          Volume        Density
0   0              1272.689       0              1272.689       98781.481      3758.8236      1.7278645
Loop time of 0.0383007 on 1 procs for 66 steps with 350 atoms

Minimization stats:
  Stopping criterion = linesearch alpha is zero
  Energy initial, next-to-last, final =
  Force two-norm initial, final = 901.271 27.323435
  Force max component initial, final = 114.73042 5.4623319
  Final line search alpha, max atom move = 1.4764214e-11 8.0647034e-11
  Iterations, force evaluations = 66 189

# Generating the full routine as described in the paper for UFF
fix nvt_relax   all nvt temp 300 300 100.0
run 100000      # 100 picoseconds
Generated 6 of 6 mixed pair_coeff terms from arithmetic mixing rule
For more information see https://docs.lammps.org/err0027 (src/domain.cpp:1052)
Step          Temp          PotEng         KinEng         TotEng         Press          Volume        Density
66   0             -16.639303      0             -16.639303      15733.727      3758.8236      1.7278645
Averages over the last 51 of 102 rows, steps 51000 to 100066:
Temp PotEng KinEng TotEng Press Volume Density
299.648 227.353 311.725 539.078 19514.1 3758.82 1.72786
Loop time of 21.2936 on 1 procs for 100000 steps with 350 atoms

unfix           nvt_relax

fix npt_relax   all npt temp 300 300 100.0 iso 0 0 500.0
run 100000      # 100 picoseconds
Generated 6 of 6 mixed pair_coeff terms from arithmetic mixing rule
For more information see https://docs.lammps.org/err0027 (src/domain.cpp:1052)
Step          Temp          PotEng         KinEng         TotEng         Press          Volume        Density
100066   280.74287      223.1962       292.05757      515.25377      23437.465      3758.8236      1.7278645
Averages over the last 51 of 102 rows, steps 151000 to 200066:
Temp PotEng KinEng TotEng Press Volume Density
300.752 220.956 312.873 533.829 648.299 3974.29 1.63424
Loop time of 24.3967 on 1 procs for 100000 steps with 350 atoms

unfix           npt_relax

# run 100000      # 100 picoseconds
# unfix           nvt_heat
#
# run 100000      # 100 picoseconds
# unfix           npt_heat
#
# run 700000      # 700 picoseconds
# unfix           cooling_npt
#
# run 100000      # 100 picoseconds
# unfix           npt_final

# density computation
variable rho equal density
fix integrate  all npt temp 300 300 100.0 iso 0 0 500.0
fix rho50k all ave/time 10 5000 50000 v_rho mode scalar ave one
run 50000
Generated 6 of 6 mixed pair_coeff terms from arithmetic mixing rule
For more information see https://docs.lammps.org/err0027 (src/domain.cpp:1052)
Step          Temp          PotEng         KinEng         TotEng         Press          Volume        Density
200066   289.14194      241.13817      300.79514      541.93331     -935.58576      4017.7129      1.6165261
Averages over the last 26 of 52 rows, steps 226000 to 250066:
Temp PotEng KinEng TotEng Press Volume Density
294.477 218.896 306.345 525.241 238.747 3981.7 1.63118
Loop time of 11.6142 on 1 procs for 50000 steps with 350 atoms

unfix integrate
unfix rho50k

# Compute initial state
fix 3 all box/relax  aniso 0.0
minimize 0 1e-10 100000 100000
Generated 6 of 6 mixed pair_coeff terms from arithmetic mixing rule
 (src/min.cpp:222)
For more information see https://docs.lammps.org/err0027 (src/domain.cpp:1052)
Step          Temp          PotEng         KinEng         TotEng         Press          Volume        Density
250066   285.97298      231.33827      297.49846      528.83673      5569.035       3960.9032      1.6397114
Loop time of 0.0516322 on 1 procs for 16 steps with 350 atoms

Minimization stats:
  Stopping criterion = linesearch alpha is zero
  Energy initial, next-to-last, final =
  Force two-norm initial, final = 789.45563 775.53819
  Force max component initial, final = 417.84483 393.40113
  Final line search alpha, max atom move = 1.5151112e-14 5.9604645e-12
  Iterations, force evaluations = 16 186

variable tmp equal pxx
variable pxx0 equal 877.909483202238
variable tmp equal pyy
variable pyy0 equal 4820.71878563472
variable tmp equal pzz
variable pzz0 equal 10437.9380307898
variable tmp equal pyz
variable pyz0 equal 3062.3213831941
variable tmp equal pxz
variable pxz0 equal 1020.10531281141
variable tmp equal pxy
variable pxy0 equal -879.603077083995

variable tmp equal lx
variable lx0 equal 15.5057201988007
variable tmp equal ly
variable ly0 equal 14.7586388725461
variable tmp equal lz
variable lz0 equal 17.311015182669

# These formulas define the derivatives w.r.t. strain components
# Constants uses $, variables use v_
variable d1 equal -(v_pxx1-877.909483202238)/(v_delta/v_len0)*0.0001
variable d2 equal -(v_pyy1-4820.71878563472)/(v_delta/v_len0)*0.0001
variable d3 equal -(v_pzz1-10437.9380307898)/(v_delta/v_len0)*0.0001
variable d4 equal -(v_pyz1-3062.3213831941)/(v_delta/v_len0)*0.0001
variable d5 equal -(v_pxz1-1020.10531281141)/(v_delta/v_len0)*0.0001
variable d6 equal -(v_pxy1--879.603077083995)/(v_delta/v_len0)*0.0001

# Write restart
unfix 3
write_restart restart_333U-50C-20-vasp.equil
System init for write_restart ...
Generated 6 of 6 mixed pair_coeff terms from arithmetic mixing rule

# uxx Perturbation

variable dir equal 1
include ./input/displace_333U-50C-20-vasp.mod
variable len0 equal 15.5057201988007

# Reset box and simulation parameters

clear
box tilt large

The 'box' command has been removed and will be ignored

read_restart restart_333U-50C-20-vasp.equil
Reading restart file ...
  restart file = 10 Sep 2025, LAMMPS = 10 Sep 2025
  restoring atom style full from restart
  triclinic box = (-0.1337571 -0.12791394 -0.15125959) to (15.371963 14.630725 17.159756) with tilt (-6.373215 -0.4561576 -0.65341273)
  restoring pair style lj/cut from restart
  restoring bond style harmonic from restart
  restoring angle style hybrid from restart
  restoring dihedral style harmonic from restart
  350 atoms
  375 bonds
  709 angles
  879 dihedrals
Finding 1-2 1-3 1-4 neighbors ...
     4 = max # of 1-2 neighbors
    10 = max # of 1-3 neighbors
    14 = max # of special neighbors
  read_restart CPU = 0.002 seconds
include ./input/angles_333U-50C-20-vasp.mod
angle_style hybrid fourier cosine/periodic
angle_coeff 1 fourier 58.020602        0.343737        0.374972        0.281246
angle_coeff 2 fourier 157.882480        0.343737        0.374972        0.281246
angle_coeff 3 fourier 83.380072        0.343737        0.374972        0.281246
angle_coeff 4 fourier 221.735285        0.343737        0.374972        0.281246
angle_coeff 5 fourier 114.246973        0.343737        0.374972        0.281246
angle_coeff 6 fourier 32.417871        0.343737        0.374972        0.281246
angle_coeff 7 fourier 90.420412        0.343737        0.374972        0.281246
angle_coeff 8 fourier 75.498766        0.343737        0.374972        0.281246
angle_coeff 9 cosine/periodic 88.853997              -1               3

# Negative deformation

variable delta equal -0.02*15.5057201988007
variable deltaxy equal -0.02*xy
variable deltaxz equal -0.02*xz
variable deltayz equal -0.02*yz
change_box all x delta 0 -0.310114403976014 xy delta 0.127464300226057 xz delta 0.00912315192437961 remap units box
Changing box ...
  triclinic box = (-0.1337571 -0.12791394 -0.15125959) to (15.061849 14.630725 17.159756) with tilt (-6.373215 -0.4561576 -0.65341273)
  triclinic box = (-0.1337571 -0.12791394 -0.15125959) to (15.061849 14.630725 17.159756) with tilt (-6.2457507 -0.4561576 -0.65341273)
  triclinic box = (-0.1337571 -0.12791394 -0.15125959) to (15.061849 14.630725 17.159756) with tilt (-6.2457507 -0.44703444 -0.65341273)

# Relax atoms positions

minimize 0 1e-10 100000 100000
Generated 6 of 6 mixed pair_coeff terms from arithmetic mixing rule
For more information see https://docs.lammps.org/err0027 (src/domain.cpp:1052)
Step          Temp          E_pair         E_mol          TotEng         Press
250082   285.97298     -414.51596      672.03224      555.01474      30829.435
Loop time of 0.0276141 on 1 procs for 28 steps with 350 atoms

Minimization stats:
  Stopping criterion = linesearch alpha is zero
  Energy initial, next-to-last, final =
  Force two-norm initial, final = 673.06799 26.574591
  Force max component initial, final = 83.511289 5.8430571
  Final line search alpha, max atom move = 1.6470444e-11 9.6237746e-11
  Iterations, force evaluations = 28 113

# Obtain new stress tensor

variable tmp equal pxx
variable pxx1 equal 12308.0907607216
variable tmp equal pyy
variable pyy1 equal 5567.34329103231
variable tmp equal pzz
variable pzz1 equal 7393.9723039276
variable tmp equal pxy
variable pxy1 equal 715.464225779329
variable tmp equal pxz
variable pxz1 equal 1912.28733073506
variable tmp equal pyz
variable pyz1 equal 1413.01953173368

# Compute elastic constant from pressure tensor

variable C1neg equal 57.1509063875968
variable C2neg equal 3.73312252698795
variable C3neg equal -15.219828634311
variable C4neg equal -8.2465092573021
variable C5neg equal 4.46091008961825
variable C6neg equal 7.97533651431662

# Reset box and simulation parameters

clear
box tilt large

The 'box' command has been removed and will be ignored

read_restart restart_333U-50C-20-vasp.equil
Reading restart file ...
  restart file = 10 Sep 2025, LAMMPS = 10 Sep 2025
  restoring atom style full from restart
  triclinic box = (-0.1337571 -0.12791394 -0.15125959) to (15.371963 14.630725 17.159756) with tilt (-6.373215 -0.4561576 -0.65341273)
  restoring pair style lj/cut from restart
  restoring bond style harmonic from restart
  restoring angle style hybrid from restart
  restoring dihedral style harmonic from restart
  350 atoms
  375 bonds
  709 angles
  879 dihedrals
Finding 1-2 1-3 1-4 neighbors ...
     4 = max # of 1-2 neighbors
    10 = max # of 1-3 neighbors
    14 = max # of special neighbors
  read_restart CPU = 0.002 seconds
include ./input/angles_333U-50C-20-vasp.mod
angle_style hybrid fourier cosine/periodic
angle_coeff 1 fourier 58.020602        0.343737        0.374972        0.281246
angle_coeff 2 fourier 157.882480        0.343737        0.374972        0.281246
angle_coeff 3 fourier 83.380072        0.343737        0.374972        0.281246
angle_coeff 4 fourier 221.735285        0.343737        0.374972        0.281246
angle_coeff 5 fourier 114.246973        0.343737        0.374972        0.281246
angle_coeff 6 fourier 32.417871        0.343737        0.374972        0.281246
angle_coeff 7 fourier 90.420412        0.343737        0.374972        0.281246
angle_coeff 8 fourier 75.498766        0.343737        0.374972        0.281246
angle_coeff 9 cosine/periodic 88.853997              -1               3

# Positive deformation

variable delta equal 0.02*15.5057201988007
variable deltaxy equal 0.02*xy
variable deltaxz equal 0.02*xz
variable deltayz equal 0.02*yz
change_box all x delta 0 0.310114403976014 xy delta -0.127464300226057 xz delta -0.00912315192437961 remap units box
Changing box ...
  triclinic box = (-0.1337571 -0.12791394 -0.15125959) to (15.682078 14.630725 17.159756) with tilt (-6.373215 -0.4561576 -0.65341273)
  triclinic box = (-0.1337571 -0.12791394 -0.15125959) to (15.682078 14.630725 17.159756) with tilt (-6.5006793 -0.4561576 -0.65341273)
  triclinic box = (-0.1337571 -0.12791394 -0.15125959) to (15.682078 14.630725 17.159756) with tilt (-6.5006793 -0.46528075 -0.65341273)

# Relax atoms positions

minimize 0 1e-10 100000 100000
Generated 6 of 6 mixed pair_coeff terms from arithmetic mixing rule
For more information see https://docs.lammps.org/err0027 (src/domain.cpp:1052)
Step          Temp          E_pair         E_mol          TotEng         Press
250082   285.97298     -442.07918      708.27833      563.69761     -19209.914
Loop time of 0.0296779 on 1 procs for 35 steps with 350 atoms

Minimization stats:
  Stopping criterion = linesearch alpha is zero
  Energy initial, next-to-last, final =
  Force two-norm initial, final = 681.16876 21.530359
  Force max component initial, final = 99.971675 3.3444476
  Final line search alpha, max atom move = 1.6963713e-11 5.6734247e-11
  Iterations, force evaluations = 35 127

# Obtain new stress tensor

variable tmp equal pe
variable e1 equal -82.6356055682996
variable tmp equal press
variable p1 equal -6664.68091176373
variable tmp equal pxx
variable pxx1 equal -14120.4216072603
variable tmp equal pyy
variable pyy1 equal -3347.40929708503
variable tmp equal pzz
variable pzz1 equal -2526.21183094588
variable tmp equal pxy
variable pxy1 equal 799.29921266833
variable tmp equal pxz
variable pxz1 equal 2535.03027741481
variable tmp equal pyz
variable pyz1 equal 995.730026556907

# Compute elastic constant from pressure tensor

variable C1pos equal 74.9916554523127
variable C2pos equal 40.8406404135988
variable C3pos equal 64.8207493086784
variable C4pos equal 10.332956783186
variable C5pos equal -7.574624823017
variable C6pos equal -8.39451144876163

# Combine positive and negative

variable C11 equal 0.5*(57.1509063875968+74.9916554523127)
variable C21 equal 0.5*(3.73312252698795+40.8406404135988)
variable C31 equal 0.5*(-15.219828634311+64.8207493086784)
variable C41 equal 0.5*(-8.2465092573021+10.332956783186)
variable C51 equal 0.5*(4.46091008961825+-7.574624823017)
variable C61 equal 0.5*(7.97533651431662+-8.39451144876163)

# Delete dir to make sure it is not reused

variable dir delete

# uyy Perturbation

variable dir equal 2
include ./input/displace_333U-50C-20-vasp.mod
variable len0 equal 14.7586388725461

# Reset box and simulation parameters

clear
box tilt large

The 'box' command has been removed and will be ignored

read_restart restart_333U-50C-20-vasp.equil
Reading restart file ...
  restart file = 10 Sep 2025, LAMMPS = 10 Sep 2025
  restoring atom style full from restart
  triclinic box = (-0.1337571 -0.12791394 -0.15125959) to (15.371963 14.630725 17.159756) with tilt (-6.373215 -0.4561576 -0.65341273)
  restoring pair style lj/cut from restart
  restoring bond style harmonic from restart
  restoring angle style hybrid from restart
  restoring dihedral style harmonic from restart
  350 atoms
  375 bonds
  709 angles
  879 dihedrals
Finding 1-2 1-3 1-4 neighbors ...
     4 = max # of 1-2 neighbors
    10 = max # of 1-3 neighbors
    14 = max # of special neighbors
  read_restart CPU = 0.001 seconds
include ./input/angles_333U-50C-20-vasp.mod
angle_style hybrid fourier cosine/periodic
angle_coeff 1 fourier 58.020602        0.343737        0.374972        0.281246
angle_coeff 2 fourier 157.882480        0.343737        0.374972        0.281246
angle_coeff 3 fourier 83.380072        0.343737        0.374972        0.281246
angle_coeff 4 fourier 221.735285        0.343737        0.374972        0.281246
angle_coeff 5 fourier 114.246973        0.343737        0.374972        0.281246
angle_coeff 6 fourier 32.417871        0.343737        0.374972        0.281246
angle_coeff 7 fourier 90.420412        0.343737        0.374972        0.281246
angle_coeff 8 fourier 75.498766        0.343737        0.374972        0.281246
angle_coeff 9 cosine/periodic 88.853997              -1               3

# Negative deformation

variable delta equal -0.02*14.7586388725461
variable deltaxy equal -0.02*xy
variable deltaxz equal -0.02*xz
variable deltayz equal -0.02*yz
change_box all y delta 0 -0.295172777450922 yz delta 0.0130682546901066 remap units box
Changing box ...
  triclinic box = (-0.1337571 -0.12791394 -0.15125959) to (15.371963 14.335552 17.159756) with tilt (-6.373215 -0.4561576 -0.65341273)
  triclinic box = (-0.1337571 -0.12791394 -0.15125959) to (15.371963 14.335552 17.159756) with tilt (-6.373215 -0.4561576 -0.64034448)

# Relax atoms positions

minimize 0 1e-10 100000 100000
Generated 6 of 6 mixed pair_coeff terms from arithmetic mixing rule
For more information see https://docs.lammps.org/err0027 (src/domain.cpp:1052)
Step          Temp          E_pair         E_mol          TotEng         Press
250082   285.97298     -414.39343      676.41384      559.51888      30286.2
Loop time of 0.0355325 on 1 procs for 44 steps with 350 atoms

Minimization stats:
  Stopping criterion = linesearch alpha is zero
  Energy initial, next-to-last, final =
  Force two-norm initial, final = 664.40779 16.276609
  Force max component initial, final = 94.080543 1.9846909
  Final line search alpha, max atom move = 4.2190455e-11 8.3735011e-11
  Iterations, force evaluations = 44 143

# Obtain new stress tensor

variable tmp equal pxx
variable pxx1 equal 1928.1473108172
variable tmp equal pyy
variable pyy1 equal 9919.41547109394
variable tmp equal pzz
variable pzz1 equal 6012.8717962263
variable tmp equal pxy
variable pxy1 equal 845.06953918345
variable tmp equal pxz
variable pxz1 equal 1613.07884577217
variable tmp equal pyz
variable pyz1 equal 594.933433660987

# Compute elastic constant from pressure tensor

variable C1neg equal 5.25118913807481
variable C2neg equal 25.4934834272961
variable C3neg equal -22.1253311728175
variable C4neg equal -12.3369397476656
variable C5neg equal 2.9648676648038
variable C6neg equal 8.62336308133722

# Reset box and simulation parameters

clear
box tilt large

The 'box' command has been removed and will be ignored

read_restart restart_333U-50C-20-vasp.equil
Reading restart file ...
  restart file = 10 Sep 2025, LAMMPS = 10 Sep 2025
  restoring atom style full from restart
  triclinic box = (-0.1337571 -0.12791394 -0.15125959) to (15.371963 14.630725 17.159756) with tilt (-6.373215 -0.4561576 -0.65341273)
  restoring pair style lj/cut from restart
  restoring bond style harmonic from restart
  restoring angle style hybrid from restart
  restoring dihedral style harmonic from restart
  350 atoms
  375 bonds
  709 angles
  879 dihedrals
Finding 1-2 1-3 1-4 neighbors ...
     4 = max # of 1-2 neighbors
    10 = max # of 1-3 neighbors
    14 = max # of special neighbors
  read_restart CPU = 0.001 seconds
include ./input/angles_333U-50C-20-vasp.mod
angle_style hybrid fourier cosine/periodic
angle_coeff 1 fourier 58.020602        0.343737        0.374972        0.281246
angle_coeff 2 fourier 157.882480        0.343737        0.374972        0.281246
angle_coeff 3 fourier 83.380072        0.343737        0.374972        0.281246
angle_coeff 4 fourier 221.735285        0.343737        0.374972        0.281246
angle_coeff 5 fourier 114.246973        0.343737        0.374972        0.281246
angle_coeff 6 fourier 32.417871        0.343737        0.374972        0.281246
angle_coeff 7 fourier 90.420412        0.343737        0.374972        0.281246
angle_coeff 8 fourier 75.498766        0.343737        0.374972        0.281246
angle_coeff 9 cosine/periodic 88.853997              -1               3

# Positive deformation

variable delta equal 0.02*14.7586388725461
variable deltaxy equal 0.02*xy
variable deltaxz equal 0.02*xz
variable deltayz equal 0.02*yz
change_box all y delta 0 0.295172777450922 yz delta -0.0130682546901066 remap units box
Changing box ...
  triclinic box = (-0.1337571 -0.12791394 -0.15125959) to (15.371963 14.925898 17.159756) with tilt (-6.373215 -0.4561576 -0.65341273)
  triclinic box = (-0.1337571 -0.12791394 -0.15125959) to (15.371963 14.925898 17.159756) with tilt (-6.373215 -0.4561576 -0.66648099)

# Relax atoms positions

minimize 0 1e-10 100000 100000
Generated 6 of 6 mixed pair_coeff terms from arithmetic mixing rule
For more information see https://docs.lammps.org/err0027 (src/domain.cpp:1052)
Step          Temp          E_pair         E_mol          TotEng         Press
250082   285.97298     -443.06537      702.84769      557.28078     -18707.111
Loop time of 0.0302367 on 1 procs for 35 steps with 350 atoms

Minimization stats:
  Stopping criterion = linesearch alpha is zero
  Energy initial, next-to-last, final =
  Force two-norm initial, final = 688.68321 19.760926
  Force max component initial, final = 80.164785 2.6509263
  Final line search alpha, max atom move = 1.8439187e-11 4.8880927e-11
  Iterations, force evaluations = 35 126

# Obtain new stress tensor

variable tmp equal pe
variable e1 equal -84.5284652109758
variable tmp equal press
variable p1 equal -5783.8120375833
variable tmp equal pxx
variable pxx1 equal -6049.3871383047
variable tmp equal pyy
variable pyy1 equal -9132.15461585846
variable tmp equal pzz
variable pzz1 equal -2169.89435858673
variable tmp equal pxy
variable pxy1 equal 1080.21889435693
variable tmp equal pxz
variable pxz1 equal 2129.47228799053
variable tmp equal pyz
variable pyz1 equal 1255.26703709508

# Compute elastic constant from pressure tensor

variable C1pos equal 34.6364831075347
variable C2pos equal 69.7643670074659
variable C3pos equal 63.0391619468827
variable C4pos equal 9.0352717304951
variable C5pos equal -5.5468348758956
variable C6pos equal -9.79910985720463

# Combine positive and negative

variable C12 equal 0.5*(5.25118913807481+34.6364831075347)
variable C22 equal 0.5*(25.4934834272961+69.7643670074659)
variable C32 equal 0.5*(-22.1253311728175+63.0391619468827)
variable C42 equal 0.5*(-12.3369397476656+9.0352717304951)
variable C52 equal 0.5*(2.9648676648038+-5.5468348758956)
variable C62 equal 0.5*(8.62336308133722+-9.79910985720463)

# Delete dir to make sure it is not reused

variable dir delete

# uzz Perturbation

variable dir equal 3
include ./input/displace_333U-50C-20-vasp.mod
variable len0 equal 17.311015182669

# Reset box and simulation parameters

clear
box tilt large

The 'box' command has been removed and will be ignored

read_restart restart_333U-50C-20-vasp.equil
Reading restart file ...
  restart file = 10 Sep 2025, LAMMPS = 10 Sep 2025
  restoring atom style full from restart
  triclinic box = (-0.1337571 -0.12791394 -0.15125959) to (15.371963 14.630725 17.159756) with tilt (-6.373215 -0.4561576 -0.65341273)
  restoring pair style lj/cut from restart
  restoring bond style harmonic from restart
  restoring angle style hybrid from restart
  restoring dihedral style harmonic from restart
  350 atoms
  375 bonds
  709 angles
  879 dihedrals
Finding 1-2 1-3 1-4 neighbors ...
     4 = max # of 1-2 neighbors
    10 = max # of 1-3 neighbors
    14 = max # of special neighbors
  read_restart CPU = 0.001 seconds
include ./input/angles_333U-50C-20-vasp.mod
angle_style hybrid fourier cosine/periodic
angle_coeff 1 fourier 58.020602        0.343737        0.374972        0.281246
angle_coeff 2 fourier 157.882480        0.343737        0.374972        0.281246
angle_coeff 3 fourier 83.380072        0.343737        0.374972        0.281246
angle_coeff 4 fourier 221.735285        0.343737        0.374972        0.281246
angle_coeff 5 fourier 114.246973        0.343737        0.374972        0.281246
angle_coeff 6 fourier 32.417871        0.343737        0.374972        0.281246
angle_coeff 7 fourier 90.420412        0.343737        0.374972        0.281246
angle_coeff 8 fourier 75.498766        0.343737        0.374972        0.281246
angle_coeff 9 cosine/periodic 88.853997              -1               3

# Negative deformation

variable delta equal -0.02*17.311015182669
variable deltaxy equal -0.02*xy
variable deltaxz equal -0.02*xz
variable deltayz equal -0.02*yz
change_box all z delta 0 -0.34622030365338 remap units box
Changing box ...
  triclinic box = (-0.1337571 -0.12791394 -0.15125959) to (15.371963 14.630725 16.813535) with tilt (-6.373215 -0.4561576 -0.65341273)

# Relax atoms positions

minimize 0 1e-10 100000 100000
Generated 6 of 6 mixed pair_coeff terms from arithmetic mixing rule
For more information see https://docs.lammps.org/err0027 (src/domain.cpp:1052)
Step          Temp          E_pair         E_mol          TotEng         Press
250082   285.97298     -411.26483      678.31378      564.54741      30998.613
Loop time of 0.0346977 on 1 procs for 42 steps with 350 atoms

Minimization stats:
  Stopping criterion = linesearch alpha is zero
  Energy initial, next-to-last, final =
  Force two-norm initial, final = 672.3943 17.108568
  Force max component initial, final = 88.956812 2.133642
  Final line search alpha, max atom move = 3.7403664e-11 7.9806028e-11
  Iterations, force evaluations = 42 139

# Obtain new stress tensor

variable tmp equal pxx
variable pxx1 equal 2860.57081788836
variable tmp equal pyy
variable pyy1 equal 4920.32108910312
variable tmp equal pzz
variable pzz1 equal 13033.8959868479
variable tmp equal pxy
variable pxy1 equal 2119.25207720395
variable tmp equal pxz
variable pxz1 equal 454.782431581328
variable tmp equal pyz
variable pyz1 equal 584.806522270653

# Compute elastic constant from pressure tensor

variable C1neg equal 9.91330667343061
variable C2neg equal 0.498011517342002
variable C3neg equal 12.9797897802905
variable C4neg equal -12.3875743046172
variable C5neg equal -2.82661440615041
variable C6neg equal 14.9942757714397

# Reset box and simulation parameters

clear
box tilt large

The 'box' command has been removed and will be ignored

read_restart restart_333U-50C-20-vasp.equil
Reading restart file ...
  restart file = 10 Sep 2025, LAMMPS = 10 Sep 2025
  restoring atom style full from restart
  triclinic box = (-0.1337571 -0.12791394 -0.15125959) to (15.371963 14.630725 17.159756) with tilt (-6.373215 -0.4561576 -0.65341273)
  restoring pair style lj/cut from restart
  restoring bond style harmonic from restart
  restoring angle style hybrid from restart
  restoring dihedral style harmonic from restart
  350 atoms
  375 bonds
  709 angles
  879 dihedrals
Finding 1-2 1-3 1-4 neighbors ...
     4 = max # of 1-2 neighbors
    10 = max # of 1-3 neighbors
    14 = max # of special neighbors
  read_restart CPU = 0.001 seconds
include ./input/angles_333U-50C-20-vasp.mod
angle_style hybrid fourier cosine/periodic
angle_coeff 1 fourier 58.020602        0.343737        0.374972        0.281246
angle_coeff 2 fourier 157.882480        0.343737        0.374972        0.281246
angle_coeff 3 fourier 83.380072        0.343737        0.374972        0.281246
angle_coeff 4 fourier 221.735285        0.343737        0.374972        0.281246
angle_coeff 5 fourier 114.246973        0.343737        0.374972        0.281246
angle_coeff 6 fourier 32.417871        0.343737        0.374972        0.281246
angle_coeff 7 fourier 90.420412        0.343737        0.374972        0.281246
angle_coeff 8 fourier 75.498766        0.343737        0.374972        0.281246
angle_coeff 9 cosine/periodic 88.853997              -1               3

# Positive deformation

variable delta equal 0.02*17.311015182669
variable deltaxy equal 0.02*xy
variable deltaxz equal 0.02*xz
variable deltayz equal 0.02*yz
change_box all z delta 0 0.34622030365338 remap units box
Changing box ...
  triclinic box = (-0.1337571 -0.12791394 -0.15125959) to (15.371963 14.630725 17.505976) with tilt (-6.373215 -0.4561576 -0.65341273)

# Relax atoms positions

minimize 0 1e-10 100000 100000
Generated 6 of 6 mixed pair_coeff terms from arithmetic mixing rule
For more information see https://docs.lammps.org/err0027 (src/domain.cpp:1052)
Step          Temp          E_pair         E_mol          TotEng         Press
250082   285.97298     -447.46146      699.24311      549.28011     -19380.273
Loop time of 0.0301133 on 1 procs for 35 steps with 350 atoms

Minimization stats:
  Stopping criterion = linesearch alpha is zero
  Energy initial, next-to-last, final =
  Force two-norm initial, final = 679.98098 22.571925
  Force max component initial, final = 85.45216 2.9424957
  Final line search alpha, max atom move = 1.6196736e-11 4.7658825e-11
  Iterations, force evaluations = 35 126

# Obtain new stress tensor

variable tmp equal pe
variable e1 equal -86.5049792862929
variable tmp equal press
variable p1 equal -6249.76340393605
variable tmp equal pxx
variable pxx1 equal -6728.12551592639
variable tmp equal pyy
variable pyy1 equal -3703.61057650088
variable tmp equal pzz
variable pzz1 equal -8317.55411938089
variable tmp equal pxy
variable pxy1 equal -85.935644714357
variable tmp equal pxz
variable pxz1 equal 3174.03343496969
variable tmp equal pyz
variable pyz1 equal 1066.91147600091

# Compute elastic constant from pressure tensor

variable C1pos equal 38.0301749956431
variable C2pos equal 42.621646810678
variable C3pos equal 93.7774607508535
variable C4pos equal 9.97704953596595
variable C5pos equal -10.7696406107914
variable C6pos equal -3.96833716184819

# Combine positive and negative

variable C13 equal 0.5*(9.91330667343061+38.0301749956431)
variable C23 equal 0.5*(0.498011517342002+42.621646810678)
variable C33 equal 0.5*(12.9797897802905+93.7774607508535)
variable C43 equal 0.5*(-12.3875743046172+9.97704953596595)
variable C53 equal 0.5*(-2.82661440615041+-10.7696406107914)
variable C63 equal 0.5*(14.9942757714397+-3.96833716184819)

# Delete dir to make sure it is not reused

variable dir delete

# uyz Perturbation

variable dir equal 4
include ./input/displace_333U-50C-20-vasp.mod
variable len0 equal 17.311015182669

# Reset box and simulation parameters

clear
box tilt large

The 'box' command has been removed and will be ignored

read_restart restart_333U-50C-20-vasp.equil
Reading restart file ...
  restart file = 10 Sep 2025, LAMMPS = 10 Sep 2025
  restoring atom style full from restart
  triclinic box = (-0.1337571 -0.12791394 -0.15125959) to (15.371963 14.630725 17.159756) with tilt (-6.373215 -0.4561576 -0.65341273)
  restoring pair style lj/cut from restart
  restoring bond style harmonic from restart
  restoring angle style hybrid from restart
  restoring dihedral style harmonic from restart
  350 atoms
  375 bonds
  709 angles
  879 dihedrals
Finding 1-2 1-3 1-4 neighbors ...
     4 = max # of 1-2 neighbors
    10 = max # of 1-3 neighbors
    14 = max # of special neighbors
  read_restart CPU = 0.001 seconds
include ./input/angles_333U-50C-20-vasp.mod
angle_style hybrid fourier cosine/periodic
angle_coeff 1 fourier 58.020602        0.343737        0.374972        0.281246
angle_coeff 2 fourier 157.882480        0.343737        0.374972        0.281246
angle_coeff 3 fourier 83.380072        0.343737        0.374972        0.281246
angle_coeff 4 fourier 221.735285        0.343737        0.374972        0.281246
angle_coeff 5 fourier 114.246973        0.343737        0.374972        0.281246
angle_coeff 6 fourier 32.417871        0.343737        0.374972        0.281246
angle_coeff 7 fourier 90.420412        0.343737        0.374972        0.281246
angle_coeff 8 fourier 75.498766        0.343737        0.374972        0.281246
angle_coeff 9 cosine/periodic 88.853997              -1               3

# Negative deformation

variable delta equal -0.02*17.311015182669
variable deltaxy equal -0.02*xy
variable deltaxz equal -0.02*xz
variable deltayz equal -0.02*yz
change_box all yz delta -0.34622030365338 remap units box
Changing box ...
  triclinic box = (-0.1337571 -0.12791394 -0.15125959) to (15.371963 14.630725 17.159756) with tilt (-6.373215 -0.4561576 -0.99963304)

# Relax atoms positions

minimize 0 1e-10 100000 100000
Generated 6 of 6 mixed pair_coeff terms from arithmetic mixing rule
For more information see https://docs.lammps.org/err0027 (src/domain.cpp:1052)
Step          Temp          E_pair         E_mol          TotEng         Press
250082   285.97298     -431.99708      679.13347      544.63485      4926.4734
Loop time of 0.0330604 on 1 procs for 41 steps with 350 atoms

Minimization stats:
  Stopping criterion = linesearch alpha is zero
  Energy initial, next-to-last, final =
  Force two-norm initial, final = 669.02283 16.920856
  Force max component initial, final = 79.230212 2.4091725
  Final line search alpha, max atom move = 3.4251438e-11 8.2517622e-11
  Iterations, force evaluations = 41 138

# Obtain new stress tensor

variable tmp equal pxx
variable pxx1 equal -1953.92024283503
variable tmp equal pyy
variable pyy1 equal 180.623609041553
variable tmp equal pzz
variable pzz1 equal 1625.26395904692
variable tmp equal pxy
variable pxy1 equal 882.673981754059
variable tmp equal pxz
variable pxz1 equal 2009.42339100596
variable tmp equal pyz
variable pyz1 equal 4310.06358265434

# Compute elastic constant from pressure tensor

variable C1neg equal -14.1591486301863
variable C2neg equal -23.2004758829658
variable C3neg equal -44.0633703587144
variable C4neg equal 6.2387109973012
variable C5neg equal 4.94659039097275
variable C6neg equal 8.81138529419027

# Reset box and simulation parameters

clear
box tilt large

The 'box' command has been removed and will be ignored

read_restart restart_333U-50C-20-vasp.equil
Reading restart file ...
  restart file = 10 Sep 2025, LAMMPS = 10 Sep 2025
  restoring atom style full from restart
  triclinic box = (-0.1337571 -0.12791394 -0.15125959) to (15.371963 14.630725 17.159756) with tilt (-6.373215 -0.4561576 -0.65341273)
  restoring pair style lj/cut from restart
  restoring bond style harmonic from restart
  restoring angle style hybrid from restart
  restoring dihedral style harmonic from restart
  350 atoms
  375 bonds
  709 angles
  879 dihedrals
Finding 1-2 1-3 1-4 neighbors ...
     4 = max # of 1-2 neighbors
    10 = max # of 1-3 neighbors
    14 = max # of special neighbors
  read_restart CPU = 0.001 seconds
include ./input/angles_333U-50C-20-vasp.mod
angle_style hybrid fourier cosine/periodic
angle_coeff 1 fourier 58.020602        0.343737        0.374972        0.281246
angle_coeff 2 fourier 157.882480        0.343737        0.374972        0.281246
angle_coeff 3 fourier 83.380072        0.343737        0.374972        0.281246
angle_coeff 4 fourier 221.735285        0.343737        0.374972        0.281246
angle_coeff 5 fourier 114.246973        0.343737        0.374972        0.281246
angle_coeff 6 fourier 32.417871        0.343737        0.374972        0.281246
angle_coeff 7 fourier 90.420412        0.343737        0.374972        0.281246
angle_coeff 8 fourier 75.498766        0.343737        0.374972        0.281246
angle_coeff 9 cosine/periodic 88.853997              -1               3

# Positive deformation

variable delta equal 0.02*17.311015182669
variable deltaxy equal 0.02*xy
variable deltaxz equal 0.02*xz
variable deltayz equal 0.02*yz
change_box all yz delta 0.34622030365338 remap units box
Changing box ...
  triclinic box = (-0.1337571 -0.12791394 -0.15125959) to (15.371963 14.630725 17.159756) with tilt (-6.373215 -0.4561576 -0.30719243)

# Relax atoms positions

minimize 0 1e-10 100000 100000
Generated 6 of 6 mixed pair_coeff terms from arithmetic mixing rule
For more information see https://docs.lammps.org/err0027 (src/domain.cpp:1052)
Step          Temp          E_pair         E_mol          TotEng         Press
250082   285.97298     -428.79722      669.47781      538.17906      5478.4891
Loop time of 0.0302532 on 1 procs for 32 steps with 350 atoms

Minimization stats:
  Stopping criterion = linesearch alpha is zero
  Energy initial, next-to-last, final =
  Force two-norm initial, final = 663.12975 21.446231
  Force max component initial, final = 95.012436 3.2667571
  Final line search alpha, max atom move = 1.9952635e-11 6.5180412e-11
  Iterations, force evaluations = 32 121

# Obtain new stress tensor

variable tmp equal pe
variable e1 equal -94.2687031722155
variable tmp equal press
variable p1 equal 292.714984724025
variable tmp equal pxx
variable pxx1 equal -2213.75311178227
variable tmp equal pyy
variable pyy1 equal 1156.15296023055
variable tmp equal pzz
variable pzz1 equal 1935.74510572379
variable tmp equal pxy
variable pxy1 equal 1097.60732302347
variable tmp equal pxz
variable pxz1 equal 1973.94780308132
variable tmp equal pyz
variable pyz1 equal -2641.99957732173

# Compute elastic constant from pressure tensor

variable C1pos equal 15.4583129749225
variable C2pos equal 18.3228291270208
variable C3pos equal 42.51096462533
variable C4pos equal 28.5216048025791
variable C5pos equal -4.76921245134955
variable C6pos equal -9.88605200053732

# Combine positive and negative

variable C14 equal 0.5*(-14.1591486301863+15.4583129749225)
variable C24 equal 0.5*(-23.2004758829658+18.3228291270208)
variable C34 equal 0.5*(-44.0633703587144+42.51096462533)
variable C44 equal 0.5*(6.2387109973012+28.5216048025791)
variable C54 equal 0.5*(4.94659039097275+-4.76921245134955)
variable C64 equal 0.5*(8.81138529419027+-9.88605200053732)

# Delete dir to make sure it is not reused

variable dir delete

# uxz Perturbation

variable dir equal 5
include ./input/displace_333U-50C-20-vasp.mod
variable len0 equal 17.311015182669

# Reset box and simulation parameters

clear
box tilt large

The 'box' command has been removed and will be ignored

read_restart restart_333U-50C-20-vasp.equil
Reading restart file ...
  restart file = 10 Sep 2025, LAMMPS = 10 Sep 2025
  restoring atom style full from restart
  triclinic box = (-0.1337571 -0.12791394 -0.15125959) to (15.371963 14.630725 17.159756) with tilt (-6.373215 -0.4561576 -0.65341273)
  restoring pair style lj/cut from restart
  restoring bond style harmonic from restart
  restoring angle style hybrid from restart
  restoring dihedral style harmonic from restart
  350 atoms
  375 bonds
  709 angles
  879 dihedrals
Finding 1-2 1-3 1-4 neighbors ...
     4 = max # of 1-2 neighbors
    10 = max # of 1-3 neighbors
    14 = max # of special neighbors
  read_restart CPU = 0.001 seconds
include ./input/angles_333U-50C-20-vasp.mod
angle_style hybrid fourier cosine/periodic
angle_coeff 1 fourier 58.020602        0.343737        0.374972        0.281246
angle_coeff 2 fourier 157.882480        0.343737        0.374972        0.281246
angle_coeff 3 fourier 83.380072        0.343737        0.374972        0.281246
angle_coeff 4 fourier 221.735285        0.343737        0.374972        0.281246
angle_coeff 5 fourier 114.246973        0.343737        0.374972        0.281246
angle_coeff 6 fourier 32.417871        0.343737        0.374972        0.281246
angle_coeff 7 fourier 90.420412        0.343737        0.374972        0.281246
angle_coeff 8 fourier 75.498766        0.343737        0.374972        0.281246
angle_coeff 9 cosine/periodic 88.853997              -1               3

# Negative deformation

variable delta equal -0.02*17.311015182669
variable deltaxy equal -0.02*xy
variable deltaxz equal -0.02*xz
variable deltayz equal -0.02*yz
change_box all xz delta -0.34622030365338 remap units box
Changing box ...
  triclinic box = (-0.1337571 -0.12791394 -0.15125959) to (15.371963 14.630725 17.159756) with tilt (-6.373215 -0.8023779 -0.65341273)

# Relax atoms positions

minimize 0 1e-10 100000 100000
Generated 6 of 6 mixed pair_coeff terms from arithmetic mixing rule
For more information see https://docs.lammps.org/err0027 (src/domain.cpp:1052)
Step          Temp          E_pair         E_mol          TotEng         Press
250082   285.97298     -430.78108      676.57737      543.29476      5170.4444
Loop time of 0.0264398 on 1 procs for 27 steps with 350 atoms

Minimization stats:
  Stopping criterion = linesearch alpha is zero
  Energy initial, next-to-last, final =
  Force two-norm initial, final = 670.33938 27.519011
  Force max component initial, final = 95.263954 4.210193
  Final line search alpha, max atom move = 8.4560837e-12 3.5601744e-11
  Iterations, force evaluations = 27 112

# Obtain new stress tensor

variable tmp equal pxx
variable pxx1 equal -1610.4767109225
variable tmp equal pyy
variable pyy1 equal 1830.51781210992
variable tmp equal pzz
variable pzz1 equal 1403.92822935521
variable tmp equal pxy
variable pxy1 equal 484.600245701324
variable tmp equal pxz
variable pxz1 equal 6734.84927204962
variable tmp equal pyz
variable pyz1 equal 1838.53649556413

# Compute elastic constant from pressure tensor

variable C1neg equal -12.4419309706237
variable C2neg equal -14.951004867624
variable C3neg equal -45.1700490071729
variable C4neg equal -6.11892443814985
variable C5neg equal 28.573719796191
variable C6neg equal 6.82101661392659

# Reset box and simulation parameters

clear
box tilt large

The 'box' command has been removed and will be ignored

read_restart restart_333U-50C-20-vasp.equil
Reading restart file ...
  restart file = 10 Sep 2025, LAMMPS = 10 Sep 2025
  restoring atom style full from restart
  triclinic box = (-0.1337571 -0.12791394 -0.15125959) to (15.371963 14.630725 17.159756) with tilt (-6.373215 -0.4561576 -0.65341273)
  restoring pair style lj/cut from restart
  restoring bond style harmonic from restart
  restoring angle style hybrid from restart
  restoring dihedral style harmonic from restart
  350 atoms
  375 bonds
  709 angles
  879 dihedrals
Finding 1-2 1-3 1-4 neighbors ...
     4 = max # of 1-2 neighbors
    10 = max # of 1-3 neighbors
    14 = max # of special neighbors
  read_restart CPU = 0.001 seconds
include ./input/angles_333U-50C-20-vasp.mod
angle_style hybrid fourier cosine/periodic
angle_coeff 1 fourier 58.020602        0.343737        0.374972        0.281246
angle_coeff 2 fourier 157.882480        0.343737        0.374972        0.281246
angle_coeff 3 fourier 83.380072        0.343737        0.374972        0.281246
angle_coeff 4 fourier 221.735285        0.343737        0.374972        0.281246
angle_coeff 5 fourier 114.246973        0.343737        0.374972        0.281246
angle_coeff 6 fourier 32.417871        0.343737        0.374972        0.281246
angle_coeff 7 fourier 90.420412        0.343737        0.374972        0.281246
angle_coeff 8 fourier 75.498766        0.343737        0.374972        0.281246
angle_coeff 9 cosine/periodic 88.853997              -1               3

# Positive deformation

variable delta equal 0.02*17.311015182669
variable deltaxy equal 0.02*xy
variable deltaxz equal 0.02*xz
variable deltayz equal 0.02*yz
change_box all xz delta 0.34622030365338 remap units box
Changing box ...
  triclinic box = (-0.1337571 -0.12791394 -0.15125959) to (15.371963 14.630725 17.159756) with tilt (-6.373215 -0.10993729 -0.65341273)

# Relax atoms positions

minimize 0 1e-10 100000 100000
Generated 6 of 6 mixed pair_coeff terms from arithmetic mixing rule
For more information see https://docs.lammps.org/err0027 (src/domain.cpp:1052)
Step          Temp          E_pair         E_mol          TotEng         Press
250082   285.97298     -429.21805      672.56608      540.84649      5259.6097
Loop time of 0.0329908 on 1 procs for 41 steps with 350 atoms

Minimization stats:
  Stopping criterion = linesearch alpha is zero
  Energy initial, next-to-last, final =
  Force two-norm initial, final = 662.80431 17.312643
  Force max component initial, final = 78.897734 2.3926915
  Final line search alpha, max atom move = 3.5646293e-11 8.5290582e-11
  Iterations, force evaluations = 41 138

# Obtain new stress tensor

variable tmp equal pe
variable e1 equal -96.6208827499417
variable tmp equal press
variable p1 equal 611.885157441559
variable tmp equal pxx
variable pxx1 equal -1514.95165851359
variable tmp equal pyy
variable pyy1 equal 501.156924910012
variable tmp equal pzz
variable pzz1 equal 2849.45020592825
variable tmp equal pxy
variable pxy1 equal 1268.89118401802
variable tmp equal pxz
variable pxz1 equal -2303.19752063837
variable tmp equal pyz
variable pyz1 equal 368.385477401169

# Compute elastic constant from pressure tensor

variable C1pos equal 11.9643057085791
variable C2pos equal 21.5978093036235
variable C3pos equal 37.9424391243078
variable C4pos equal 13.4696795289647
variable C5pos equal 16.6165141672489
variable C6pos equal -10.7424713055101

# Combine positive and negative

variable C15 equal 0.5*(-12.4419309706237+11.9643057085791)
variable C25 equal 0.5*(-14.951004867624+21.5978093036235)
variable C35 equal 0.5*(-45.1700490071729+37.9424391243078)
variable C45 equal 0.5*(-6.11892443814985+13.4696795289647)
variable C55 equal 0.5*(28.573719796191+16.6165141672489)
variable C65 equal 0.5*(6.82101661392659+-10.7424713055101)

# Delete dir to make sure it is not reused

variable dir delete

# uxy Perturbation

variable dir equal 6
include ./input/displace_333U-50C-20-vasp.mod
variable len0 equal 14.7586388725461

# Reset box and simulation parameters

clear
box tilt large

The 'box' command has been removed and will be ignored

read_restart restart_333U-50C-20-vasp.equil
Reading restart file ...
  restart file = 10 Sep 2025, LAMMPS = 10 Sep 2025
  restoring atom style full from restart
  triclinic box = (-0.1337571 -0.12791394 -0.15125959) to (15.371963 14.630725 17.159756) with tilt (-6.373215 -0.4561576 -0.65341273)
  restoring pair style lj/cut from restart
  restoring bond style harmonic from restart
  restoring angle style hybrid from restart
  restoring dihedral style harmonic from restart
  350 atoms
  375 bonds
  709 angles
  879 dihedrals
Finding 1-2 1-3 1-4 neighbors ...
     4 = max # of 1-2 neighbors
    10 = max # of 1-3 neighbors
    14 = max # of special neighbors
  read_restart CPU = 0.001 seconds
include ./input/angles_333U-50C-20-vasp.mod
angle_style hybrid fourier cosine/periodic
angle_coeff 1 fourier 58.020602        0.343737        0.374972        0.281246
angle_coeff 2 fourier 157.882480        0.343737        0.374972        0.281246
angle_coeff 3 fourier 83.380072        0.343737        0.374972        0.281246
angle_coeff 4 fourier 221.735285        0.343737        0.374972        0.281246
angle_coeff 5 fourier 114.246973        0.343737        0.374972        0.281246
angle_coeff 6 fourier 32.417871        0.343737        0.374972        0.281246
angle_coeff 7 fourier 90.420412        0.343737        0.374972        0.281246
angle_coeff 8 fourier 75.498766        0.343737        0.374972        0.281246
angle_coeff 9 cosine/periodic 88.853997              -1               3

# Negative deformation

variable delta equal -0.02*14.7586388725461
variable deltaxy equal -0.02*xy
variable deltaxz equal -0.02*xz
variable deltayz equal -0.02*yz
change_box all xy delta -0.295172777450922 remap units box
Changing box ...
  triclinic box = (-0.1337571 -0.12791394 -0.15125959) to (15.371963 14.630725 17.159756) with tilt (-6.6683878 -0.4561576 -0.65341273)

# Relax atoms positions

minimize 0 1e-10 100000 100000
Generated 6 of 6 mixed pair_coeff terms from arithmetic mixing rule
For more information see https://docs.lammps.org/err0027 (src/domain.cpp:1052)
Step          Temp          E_pair         E_mol          TotEng         Press
250082   285.97298     -429.78222      672.75459      540.47083      5157.9416
Loop time of 0.0321258 on 1 procs for 37 steps with 350 atoms

Minimization stats:
  Stopping criterion = linesearch alpha is zero
  Energy initial, next-to-last, final =
  Force two-norm initial, final = 658.26409 19.758636
  Force max component initial, final = 87.051763 2.5609458
  Final line search alpha, max atom move = 1.8636014e-11 4.7725823e-11
  Iterations, force evaluations = 37 132

# Obtain new stress tensor

variable tmp equal pxx
variable pxx1 equal -2458.24024677956
variable tmp equal pyy
variable pyy1 equal 4.93595270983819
variable tmp equal pzz
variable pzz1 equal 2435.47776128011
variable tmp equal pxy
variable pxy1 equal 4003.49419068953
variable tmp equal pxz
variable pxz1 equal 1912.25440903237
variable tmp equal pyz
variable pyz1 equal 569.117331624722

# Compute elastic constant from pressure tensor

variable C1neg equal -16.680748649909
variable C2neg equal -24.0789141646244
variable C3neg equal -40.0123013475485
variable C4neg equal -12.4660202578469
variable C5neg equal 4.4607454811048
variable C6neg equal 24.4154863388676

# Reset box and simulation parameters

clear
box tilt large

The 'box' command has been removed and will be ignored

read_restart restart_333U-50C-20-vasp.equil
Reading restart file ...
  restart file = 10 Sep 2025, LAMMPS = 10 Sep 2025
  restoring atom style full from restart
  triclinic box = (-0.1337571 -0.12791394 -0.15125959) to (15.371963 14.630725 17.159756) with tilt (-6.373215 -0.4561576 -0.65341273)
  restoring pair style lj/cut from restart
  restoring bond style harmonic from restart
  restoring angle style hybrid from restart
  restoring dihedral style harmonic from restart
  350 atoms
  375 bonds
  709 angles
  879 dihedrals
Finding 1-2 1-3 1-4 neighbors ...
     4 = max # of 1-2 neighbors
    10 = max # of 1-3 neighbors
    14 = max # of special neighbors
  read_restart CPU = 0.001 seconds
include ./input/angles_333U-50C-20-vasp.mod
angle_style hybrid fourier cosine/periodic
angle_coeff 1 fourier 58.020602        0.343737        0.374972        0.281246
angle_coeff 2 fourier 157.882480        0.343737        0.374972        0.281246
angle_coeff 3 fourier 83.380072        0.343737        0.374972        0.281246
angle_coeff 4 fourier 221.735285        0.343737        0.374972        0.281246
angle_coeff 5 fourier 114.246973        0.343737        0.374972        0.281246
angle_coeff 6 fourier 32.417871        0.343737        0.374972        0.281246
angle_coeff 7 fourier 90.420412        0.343737        0.374972        0.281246
angle_coeff 8 fourier 75.498766        0.343737        0.374972        0.281246
angle_coeff 9 cosine/periodic 88.853997              -1               3

# Positive deformation

variable delta equal 0.02*14.7586388725461
variable deltaxy equal 0.02*xy
variable deltaxz equal 0.02*xz
variable deltayz equal 0.02*yz
change_box all xy delta 0.295172777450922 remap units box
Changing box ...
  triclinic box = (-0.1337571 -0.12791394 -0.15125959) to (15.371963 14.630725 17.159756) with tilt (-6.0780422 -0.4561576 -0.65341273)

# Relax atoms positions

minimize 0 1e-10 100000 100000
Generated 6 of 6 mixed pair_coeff terms from arithmetic mixing rule
For more information see https://docs.lammps.org/err0027 (src/domain.cpp:1052)
Step          Temp          E_pair         E_mol          TotEng         Press
250082   285.97298     -430.06537      673.72036      541.15345      5281.8622
Loop time of 0.0386385 on 1 procs for 50 steps with 350 atoms

Minimization stats:
  Stopping criterion = linesearch alpha is zero
  Energy initial, next-to-last, final =
  Force two-norm initial, final = 672.39269 11.758049
  Force max component initial, final = 86.889724 1.9274118
  Final line search alpha, max atom move = 4.7286633e-11 9.1140815e-11
  Iterations, force evaluations = 50 156

# Obtain new stress tensor

variable tmp equal pe
variable e1 equal -97.0395899306671
variable tmp equal press
variable p1 equal -190.599401260833
variable tmp equal pxx
variable pxx1 equal -1888.59919447375
variable tmp equal pyy
variable pyy1 equal 378.5775821452
variable tmp equal pzz
variable pzz1 equal 938.223408546047
variable tmp equal pxy
variable pxy1 equal -1682.68593210811
variable tmp equal pxz
variable pxz1 equal 1806.13870378945
variable tmp equal pyz
variable pyz1 equal 914.743881762053

# Compute elastic constant from pressure tensor

variable C1pos equal 13.8325433883799
variable C2pos equal 22.2107060174476
variable C3pos equal 47.4985731112188
variable C4pos equal 10.7378875071602
variable C5pos equal -3.9301669548902
variable C6pos equal 4.01541427512057

# Combine positive and negative

variable C16 equal 0.5*(-16.680748649909+13.8325433883799)
variable C26 equal 0.5*(-24.0789141646244+22.2107060174476)
variable C36 equal 0.5*(-40.0123013475485+47.4985731112188)
variable C46 equal 0.5*(-12.4660202578469+10.7378875071602)
variable C56 equal 0.5*(4.4607454811048+-3.9301669548902)
variable C66 equal 0.5*(24.4154863388676+4.01541427512057)

# Delete dir to make sure it is not reused

variable dir delete

# Output final values

variable C11all equal 66.0712809199547
variable C22all equal 47.628925217381
variable C33all equal 53.378625265572

variable C12all equal 0.5*(19.9438361228048+22.2868814702934)
variable C13all equal 0.5*(23.9717408345369+24.8004603371837)
variable C23all equal 0.5*(21.55982916401+20.4569153870326)

variable C44all equal 17.3801578999401
variable C55all equal 22.59511698172
variable C66all equal 14.2154503069941

variable C14all equal 0.5*(0.6495821723681+1.04322376294195)
variable C15all equal 0.5*(-0.2388126310223+-1.55685736669938)
variable C16all equal 0.5*(-1.42410263076455+-0.209587467222505)

variable C24all equal 0.5*(-2.4388233779725+-1.65083400858525)
variable C25all equal 0.5*(3.32340221799975+-1.2909836055459)
variable C26all equal 0.5*(-0.934104073588401+-0.587873387933705)

variable C34all equal 0.5*(-0.776202866692202+-1.20526238432562)
variable C35all equal 0.5*(-3.61380494143255+-6.79812750847091)
variable C36all equal 0.5*(3.74313588183515+5.51296930479575)

variable C45all equal 0.5*(3.67537754540743+0.0886889698115998)
variable C46all equal 0.5*(-0.86406637534335+-0.537333353173525)
variable C56all equal 0.5*(0.2652892631073+-1.96072734579176)

# Average moduli for cubic crystals

variable C11cubic equal (66.0712809199547+47.628925217381+53.378625265572)/3.0
variable C12cubic equal (21.1153587965491+24.3861005858603+21.0083722755213)/3.0
variable C44cubic equal (17.3801578999401+22.59511698172+14.2154503069941)/3.0

variable bulkmodulus equal (55.6929438009692+2*22.1699438859769)/3.0
variable shearmodulus1 equal 18.0635750628847
variable shearmodulus2 equal (55.6929438009692-22.1699438859769)/2.0
variable poissonratio equal 1.0/(1.0+55.6929438009692/22.1699438859769)

Elastic Constant 1 1 = 66.0712809199547
Elastic Constant 2 2 = 47.628925217381
Elastic Constant 3 3 = 53.378625265572

Elastic Constant 1 2 = 21.1153587965491
Elastic Constant 1 3 = 24.3861005858603
Elastic Constant 2 3 = 21.0083722755213

Elastic Constant 4 4 = 17.3801578999401
Elastic Constant 5 5 = 22.59511698172
Elastic Constant 6 6 = 14.2154503069941

Elastic Constant 1 4 = 0.846402967655025
Elastic Constant 1 5 = -0.89783499886084
Elastic Constant 1 6 = -0.816845048993528

Elastic Constant 2 4 = -2.04482869327888
Elastic Constant 2 5 = 1.01620930622693
Elastic Constant 2 6 = -0.760988730761053

Elastic Constant 3 4 = -0.990732625508911
Elastic Constant 3 5 = -5.20596622495173
Elastic Constant 3 6 = 4.62805259331545

Elastic Constant 4 5 = 1.88203325760951
Elastic Constant 4 6 = -0.700699864258437
Elastic Constant 5 6 = -0.84771904134223

Bulk Modulus = 33.3442771909743 GPa
Shear Modulus 1 = 18.0635750628847 GPa
Shear Modulus 2 = 16.7614999574962 GPa
Poisson Ratio = 0.284730563488897

variable rho equal density
density (g/cm^3) = 1.63946007352635
