units           real
atom_style      full
boundary        p p p

pair_style      lj/cut 5.000
bond_style      harmonic
angle_style     hybrid fourier cosine/periodic
dihedral_style  harmonic

dielectric      1.0
pair_modify     tail yes mix arithmetic
special_bonds   lj/coul 0.0 0.0 1.0
box tilt        large

The 'box' command has been removed and will be ignored

read_data       ./dat/data.333-HD-100C-20-VASP
Reading data file ...
  triclinic box = (0 0 0) to (15.508641 13.422386 16.909023) with tilt (-8.253875 0.616249 -0.649062)
  reading atoms ...
  366 atoms
  scanning bonds ...
  scanning angles ...
  scanning dihedrals ...
  triclinic box = (0 0 0) to (15.508641 13.422386 16.909023) with tilt (-8.253875 0.616249 -0.649062)
  reading bonds ...
  408 bonds
  reading angles ...
  792 angles
  reading dihedrals ...
  1080 dihedrals
Finding 1-2 1-3 1-4 neighbors ...
     4 = max # of 1-2 neighbors
    10 = max # of 1-3 neighbors
    14 = max # of special neighbors

#### Atom Groupings ####
group           fram     id   1:366
366 atoms in group fram
#### END Atom Groupings ####

compute am all property/atom mass
dump        atom_pos all extxyz 100 ./output/333-HD-100C-20-VASP.lammpstrj
dump_modify atom_pos element Si C O H mass yes
thermo          1000
thermo_style    custom step temp pe ke etotal press vol density

variable up equal 2e-2
variable cfac equal 1.0e-4
variable cunits string GPa

# Define minimization parameters
variable etol equal 0.0
variable ftol equal 1.0e-10
variable maxiter equal 100000
variable maxeval equal 100000
variable dmax equal 1.0e-2

variable temp equal 300.0
variable thermal_damp index 100.0
variable pressure_damp index 500.0

fix relax all box/relax aniso 0.0 vmax 0.001
unfix relax
minimize 0 1e-10 100000 100000
Generated 6 of 6 mixed pair_coeff terms from arithmetic mixing rule
For more information see https://docs.lammps.org/err0027 (src/domain.cpp:1052)
Step          Temp          PotEng         KinEng         TotEng         Press          Volume        Density
0   0              2430.2807      0              2430.2807      167143.79      3519.8324      2.0301221
Loop time of 0.0632416 on 1 procs for 90 steps with 366 atoms

Minimization stats:
  Stopping criterion = linesearch alpha is zero
  Energy initial, next-to-last, final =
  Force two-norm initial, final = 983.74916 21.411141
  Force max component initial, final = 101.66005 4.7787227
  Final line search alpha, max atom move = 2.3173645e-11 1.1074043e-10
  Iterations, force evaluations = 90 230

# Generating the full routine as described in the paper for UFF
fix nvt_relax   all nvt temp 300 300 100.0
run 100000      # 100 picoseconds
Generated 6 of 6 mixed pair_coeff terms from arithmetic mixing rule
For more information see https://docs.lammps.org/err0027 (src/domain.cpp:1052)
Step          Temp          PotEng         KinEng         TotEng         Press          Volume        Density
90   0              815.59038      0              815.59038      29379.832      3519.8324      2.0301221
Averages over the last 51 of 102 rows, steps 51000 to 100090:
Temp PotEng KinEng TotEng Press Volume Density
295.824 1123.45 321.855 1445.31 35143.1 3519.83 2.03012
Loop time of 24.553 on 1 procs for 100000 steps with 366 atoms

unfix           nvt_relax

fix npt_relax   all npt temp 300 300 100.0 iso 0 0 500.0
run 100000      # 100 picoseconds
Generated 6 of 6 mixed pair_coeff terms from arithmetic mixing rule
For more information see https://docs.lammps.org/err0027 (src/domain.cpp:1052)
Step          Temp          PotEng         KinEng         TotEng         Press          Volume        Density
100090   280.7397       1125.6971      305.44357      1431.1406      40450.928      3519.8324      2.0301221
Averages over the last 51 of 102 rows, steps 151000 to 200090:
Temp PotEng KinEng TotEng Press Volume Density
302 1100.24 328.575 1428.82 -665.222 3663.81 1.95036
Loop time of 25.6504 on 1 procs for 100000 steps with 366 atoms

unfix           npt_relax

# run 100000      # 100 picoseconds
# unfix           nvt_heat
#
# run 100000      # 100 picoseconds
# unfix           npt_heat
#
# run 700000      # 700 picoseconds
# unfix           cooling_npt
#
# run 100000      # 100 picoseconds
# unfix           npt_final

# density computation
variable rho equal density
fix integrate  all npt temp 300 300 100.0 iso 0 0 500.0
fix rho50k all ave/time 10 5000 50000 v_rho mode scalar ave one
run 50000
Generated 6 of 6 mixed pair_coeff terms from arithmetic mixing rule
For more information see https://docs.lammps.org/err0027 (src/domain.cpp:1052)
Step          Temp          PotEng         KinEng         TotEng         Press          Volume        Density
200090   304.09026      1093.6609      330.84888      1424.5098     -1656.7906      3682.7938      1.9402904
Averages over the last 26 of 52 rows, steps 226000 to 250090:
Temp PotEng KinEng TotEng Press Volume Density
301.407 1099.53 327.93 1427.46 229.972 3665.18 1.94964
Loop time of 12.3055 on 1 procs for 50000 steps with 366 atoms

unfix integrate
unfix rho50k

# Compute initial state
fix 3 all box/relax  aniso 0.0
minimize 0 1e-10 100000 100000
Generated 6 of 6 mixed pair_coeff terms from arithmetic mixing rule
 (src/min.cpp:222)
For more information see https://docs.lammps.org/err0027 (src/domain.cpp:1052)
Step          Temp          PotEng         KinEng         TotEng         Press          Volume        Density
250090   303.46893      1088.4219      330.17288      1418.5948      1021.8357      3661.5871      1.9515279
Loop time of 0.06533 on 1 procs for 35 steps with 366 atoms

Minimization stats:
  Stopping criterion = linesearch alpha is zero
  Energy initial, next-to-last, final =
  Force two-norm initial, final = 889.24889 697.00992
  Force max component initial, final = 550.91542 166.91332
  Final line search alpha, max atom move = 1.7854969e-14 2.9802322e-12
  Iterations, force evaluations = 35 218

variable tmp equal pxx
variable pxx0 equal 4560.02033427127
variable tmp equal pyy
variable pyy0 equal 5803.37932336836
variable tmp equal pzz
variable pzz0 equal 953.157328757695
variable tmp equal pyz
variable pyz0 equal -4889.66960995264
variable tmp equal pxz
variable pxz0 equal -5119.9705825424
variable tmp equal pxy
variable pxy0 equal 1172.21265724714

variable tmp equal lx
variable lx0 equal 15.7115527120224
variable tmp equal ly
variable ly0 equal 13.6127941268845
variable tmp equal lz
variable lz0 equal 17.093480178614

# These formulas define the derivatives w.r.t. strain components
# Constants uses $, variables use v_
variable d1 equal -(v_pxx1-4560.02033427127)/(v_delta/v_len0)*0.0001
variable d2 equal -(v_pyy1-5803.37932336836)/(v_delta/v_len0)*0.0001
variable d3 equal -(v_pzz1-953.157328757695)/(v_delta/v_len0)*0.0001
variable d4 equal -(v_pyz1--4889.66960995264)/(v_delta/v_len0)*0.0001
variable d5 equal -(v_pxz1--5119.9705825424)/(v_delta/v_len0)*0.0001
variable d6 equal -(v_pxy1-1172.21265724714)/(v_delta/v_len0)*0.0001

# Write restart
unfix 3
write_restart restart_333-HD-100C-20-VASP.equil
System init for write_restart ...
Generated 6 of 6 mixed pair_coeff terms from arithmetic mixing rule

# uxx Perturbation

variable dir equal 1
include ./input/displace_333-HD-100C-20-VASP.mod
variable len0 equal 15.7115527120224

# Reset box and simulation parameters

clear
box tilt large

The 'box' command has been removed and will be ignored

read_restart restart_333-HD-100C-20-VASP.equil
Reading restart file ...
  restart file = 10 Sep 2025, LAMMPS = 10 Sep 2025
  restoring atom style full from restart
  triclinic box = (-0.10145586 -0.095204063 -0.092228589) to (15.610097 13.51759 17.001252) with tilt (-8.3709633 0.62297154 -0.65614249)
  restoring pair style lj/cut from restart
  restoring bond style harmonic from restart
  restoring angle style hybrid from restart
  restoring dihedral style harmonic from restart
  366 atoms
  408 bonds
  792 angles
  1080 dihedrals
Finding 1-2 1-3 1-4 neighbors ...
     4 = max # of 1-2 neighbors
    10 = max # of 1-3 neighbors
    14 = max # of special neighbors
  read_restart CPU = 0.001 seconds
include ./input/angles_333-HD-100C-20-VASP.mod
angle_style hybrid fourier cosine/periodic
angle_coeff 1 fourier 157.882480        0.343737        0.374972        0.281246
angle_coeff 2 fourier 221.735285        0.343737        0.374972        0.281246
angle_coeff 3 fourier 114.246973        0.343737        0.374972        0.281246
angle_coeff 4 fourier 90.420412        0.343737        0.374972        0.281246
angle_coeff 5 fourier 75.498766        0.343737        0.374972        0.281246
angle_coeff 6 cosine/periodic 88.853997              -1               3

# Negative deformation

variable delta equal -0.02*15.7115527120224
variable deltaxy equal -0.02*xy
variable deltaxz equal -0.02*xz
variable deltayz equal -0.02*yz
change_box all x delta 0 -0.314231054240448 xy delta 0.167419266774226 xz delta -0.012459430762607 remap units box
Changing box ...
  triclinic box = (-0.10145586 -0.095204063 -0.092228589) to (15.295866 13.51759 17.001252) with tilt (-8.3709633 0.62297154 -0.65614249)
  triclinic box = (-0.10145586 -0.095204063 -0.092228589) to (15.295866 13.51759 17.001252) with tilt (-8.2035441 0.62297154 -0.65614249)
  triclinic box = (-0.10145586 -0.095204063 -0.092228589) to (15.295866 13.51759 17.001252) with tilt (-8.2035441 0.61051211 -0.65614249)

# Relax atoms positions

minimize 0 1e-10 100000 100000
Generated 6 of 6 mixed pair_coeff terms from arithmetic mixing rule
For more information see https://docs.lammps.org/err0027 (src/domain.cpp:1052)
Step          Temp          E_pair         E_mol          TotEng         Press
250125   303.46893     -255.86736      1379.7255      1454.031       38738.95
Loop time of 0.0238828 on 1 procs for 29 steps with 366 atoms

Minimization stats:
  Stopping criterion = linesearch alpha is zero
  Energy initial, next-to-last, final =
  Force two-norm initial, final = 687.77541 17.881966
  Force max component initial, final = 77.293509 1.9732322
  Final line search alpha, max atom move = 1.9772871e-11 3.9016465e-11
  Iterations, force evaluations = 29 115

# Obtain new stress tensor

variable tmp equal pxx
variable pxx1 equal 32576.8441486351
variable tmp equal pyy
variable pyy1 equal 15256.0865110059
variable tmp equal pzz
variable pzz1 equal 6205.72720967859
variable tmp equal pxy
variable pxy1 equal 6684.17408180644
variable tmp equal pxz
variable pxz1 equal -7736.49786563921
variable tmp equal pyz
variable pyz1 equal -6545.92471992331

# Compute elastic constant from pressure tensor

variable C1neg equal 140.084119071819
variable C2neg equal 47.2635359381877
variable C3neg equal 26.2628494046045
variable C4neg equal -8.28127554985335
variable C5neg equal -13.0826364154841
variable C6neg equal 27.5598071227965

# Reset box and simulation parameters

clear
box tilt large

The 'box' command has been removed and will be ignored

read_restart restart_333-HD-100C-20-VASP.equil
Reading restart file ...
  restart file = 10 Sep 2025, LAMMPS = 10 Sep 2025
  restoring atom style full from restart
  triclinic box = (-0.10145586 -0.095204063 -0.092228589) to (15.610097 13.51759 17.001252) with tilt (-8.3709633 0.62297154 -0.65614249)
  restoring pair style lj/cut from restart
  restoring bond style harmonic from restart
  restoring angle style hybrid from restart
  restoring dihedral style harmonic from restart
  366 atoms
  408 bonds
  792 angles
  1080 dihedrals
Finding 1-2 1-3 1-4 neighbors ...
     4 = max # of 1-2 neighbors
    10 = max # of 1-3 neighbors
    14 = max # of special neighbors
  read_restart CPU = 0.002 seconds
include ./input/angles_333-HD-100C-20-VASP.mod
angle_style hybrid fourier cosine/periodic
angle_coeff 1 fourier 157.882480        0.343737        0.374972        0.281246
angle_coeff 2 fourier 221.735285        0.343737        0.374972        0.281246
angle_coeff 3 fourier 114.246973        0.343737        0.374972        0.281246
angle_coeff 4 fourier 90.420412        0.343737        0.374972        0.281246
angle_coeff 5 fourier 75.498766        0.343737        0.374972        0.281246
angle_coeff 6 cosine/periodic 88.853997              -1               3

# Positive deformation

variable delta equal 0.02*15.7115527120224
variable deltaxy equal 0.02*xy
variable deltaxz equal 0.02*xz
variable deltayz equal 0.02*yz
change_box all x delta 0 0.314231054240448 xy delta -0.167419266774226 xz delta 0.012459430762607 remap units box
Changing box ...
  triclinic box = (-0.10145586 -0.095204063 -0.092228589) to (15.924328 13.51759 17.001252) with tilt (-8.3709633 0.62297154 -0.65614249)
  triclinic box = (-0.10145586 -0.095204063 -0.092228589) to (15.924328 13.51759 17.001252) with tilt (-8.5383826 0.62297154 -0.65614249)
  triclinic box = (-0.10145586 -0.095204063 -0.092228589) to (15.924328 13.51759 17.001252) with tilt (-8.5383826 0.63543097 -0.65614249)

# Relax atoms positions

minimize 0 1e-10 100000 100000
Generated 6 of 6 mixed pair_coeff terms from arithmetic mixing rule
For more information see https://docs.lammps.org/err0027 (src/domain.cpp:1052)
Step          Temp          E_pair         E_mol          TotEng         Press
250125   303.46893     -346.52266      1468.8867      1452.5369     -29646.355
Loop time of 0.0208836 on 1 procs for 23 steps with 366 atoms

Minimization stats:
  Stopping criterion = linesearch alpha is zero
  Energy initial, next-to-last, final =
  Force two-norm initial, final = 701.90667 21.767222
  Force max component initial, final = 81.396472 2.6802448
  Final line search alpha, max atom move = 1.7699062e-11 4.7437819e-11
  Iterations, force evaluations = 23 103

# Obtain new stress tensor

variable tmp equal pe
variable e1 equal 782.288917746318
variable tmp equal press
variable p1 equal -14938.9755515138
variable tmp equal pxx
variable pxx1 equal -23551.5346490677
variable tmp equal pyy
variable pyy1 equal -6486.42963611369
variable tmp equal pzz
variable pzz1 equal -14778.9623693601
variable tmp equal pxy
variable pxy1 equal 4166.23597390482
variable tmp equal pxz
variable pxz1 equal -8822.95590137954
variable tmp equal pyz
variable pyz1 equal -6271.60721452479

# Compute elastic constant from pressure tensor

variable C1pos equal 140.557774916695
variable C2pos equal 61.4490447974102
variable C3pos equal 78.660598490589
variable C4pos equal 6.90968802286075
variable C5pos equal 18.5149265941857
variable C6pos equal -14.9701165832884

# Combine positive and negative

variable C11 equal 0.5*(140.084119071819+140.557774916695)
variable C21 equal 0.5*(47.2635359381877+61.4490447974102)
variable C31 equal 0.5*(26.2628494046045+78.660598490589)
variable C41 equal 0.5*(-8.28127554985335+6.90968802286075)
variable C51 equal 0.5*(-13.0826364154841+18.5149265941857)
variable C61 equal 0.5*(27.5598071227965+-14.9701165832884)

# Delete dir to make sure it is not reused

variable dir delete

# uyy Perturbation

variable dir equal 2
include ./input/displace_333-HD-100C-20-VASP.mod
variable len0 equal 13.6127941268845

# Reset box and simulation parameters

clear
box tilt large

The 'box' command has been removed and will be ignored

read_restart restart_333-HD-100C-20-VASP.equil
Reading restart file ...
  restart file = 10 Sep 2025, LAMMPS = 10 Sep 2025
  restoring atom style full from restart
  triclinic box = (-0.10145586 -0.095204063 -0.092228589) to (15.610097 13.51759 17.001252) with tilt (-8.3709633 0.62297154 -0.65614249)
  restoring pair style lj/cut from restart
  restoring bond style harmonic from restart
  restoring angle style hybrid from restart
  restoring dihedral style harmonic from restart
  366 atoms
  408 bonds
  792 angles
  1080 dihedrals
Finding 1-2 1-3 1-4 neighbors ...
     4 = max # of 1-2 neighbors
    10 = max # of 1-3 neighbors
    14 = max # of special neighbors
  read_restart CPU = 0.001 seconds
include ./input/angles_333-HD-100C-20-VASP.mod
angle_style hybrid fourier cosine/periodic
angle_coeff 1 fourier 157.882480        0.343737        0.374972        0.281246
angle_coeff 2 fourier 221.735285        0.343737        0.374972        0.281246
angle_coeff 3 fourier 114.246973        0.343737        0.374972        0.281246
angle_coeff 4 fourier 90.420412        0.343737        0.374972        0.281246
angle_coeff 5 fourier 75.498766        0.343737        0.374972        0.281246
angle_coeff 6 cosine/periodic 88.853997              -1               3

# Negative deformation

variable delta equal -0.02*13.6127941268845
variable deltaxy equal -0.02*xy
variable deltaxz equal -0.02*xz
variable deltayz equal -0.02*yz
change_box all y delta 0 -0.27225588253769 yz delta 0.0131228497728013 remap units box
Changing box ...
  triclinic box = (-0.10145586 -0.095204063 -0.092228589) to (15.610097 13.245334 17.001252) with tilt (-8.3709633 0.62297154 -0.65614249)
  triclinic box = (-0.10145586 -0.095204063 -0.092228589) to (15.610097 13.245334 17.001252) with tilt (-8.3709633 0.62297154 -0.64301964)

# Relax atoms positions

minimize 0 1e-10 100000 100000
Generated 6 of 6 mixed pair_coeff terms from arithmetic mixing rule
For more information see https://docs.lammps.org/err0027 (src/domain.cpp:1052)
Step          Temp          E_pair         E_mol          TotEng         Press
250125   303.46893     -261.47618      1384.3847      1453.0814      36908.376
Loop time of 0.0264424 on 1 procs for 34 steps with 366 atoms

Minimization stats:
  Stopping criterion = linesearch alpha is zero
  Energy initial, next-to-last, final =
  Force two-norm initial, final = 673.86779 12.166176
  Force max component initial, final = 69.776582 1.5942587
  Final line search alpha, max atom move = 5.2997839e-11 8.4492269e-11
  Iterations, force evaluations = 34 123

# Obtain new stress tensor

variable tmp equal pxx
variable pxx1 equal 14186.7200061261
variable tmp equal pyy
variable pyy1 equal 34287.2106241636
variable tmp equal pzz
variable pzz1 equal 5763.64489482799
variable tmp equal pxy
variable pxy1 equal 6807.52040396311
variable tmp equal pxz
variable pxz1 equal -9718.67695533534
variable tmp equal pyz
variable pyz1 equal -4564.97886205697

# Compute elastic constant from pressure tensor

variable C1neg equal 48.1334983592741
variable C2neg equal 142.419156503976
variable C3neg equal 24.0524378303515
variable C4neg equal 1.62345373947835
variable C5neg equal -22.9935318639647
variable C6neg equal 28.1765387335799

# Reset box and simulation parameters

clear
box tilt large

The 'box' command has been removed and will be ignored

read_restart restart_333-HD-100C-20-VASP.equil
Reading restart file ...
  restart file = 10 Sep 2025, LAMMPS = 10 Sep 2025
  restoring atom style full from restart
  triclinic box = (-0.10145586 -0.095204063 -0.092228589) to (15.610097 13.51759 17.001252) with tilt (-8.3709633 0.62297154 -0.65614249)
  restoring pair style lj/cut from restart
  restoring bond style harmonic from restart
  restoring angle style hybrid from restart
  restoring dihedral style harmonic from restart
  366 atoms
  408 bonds
  792 angles
  1080 dihedrals
Finding 1-2 1-3 1-4 neighbors ...
     4 = max # of 1-2 neighbors
    10 = max # of 1-3 neighbors
    14 = max # of special neighbors
  read_restart CPU = 0.001 seconds
include ./input/angles_333-HD-100C-20-VASP.mod
angle_style hybrid fourier cosine/periodic
angle_coeff 1 fourier 157.882480        0.343737        0.374972        0.281246
angle_coeff 2 fourier 221.735285        0.343737        0.374972        0.281246
angle_coeff 3 fourier 114.246973        0.343737        0.374972        0.281246
angle_coeff 4 fourier 90.420412        0.343737        0.374972        0.281246
angle_coeff 5 fourier 75.498766        0.343737        0.374972        0.281246
angle_coeff 6 cosine/periodic 88.853997              -1               3

# Positive deformation

variable delta equal 0.02*13.6127941268845
variable deltaxy equal 0.02*xy
variable deltaxz equal 0.02*xz
variable deltayz equal 0.02*yz
change_box all y delta 0 0.27225588253769 yz delta -0.0131228497728013 remap units box
Changing box ...
  triclinic box = (-0.10145586 -0.095204063 -0.092228589) to (15.610097 13.789846 17.001252) with tilt (-8.3709633 0.62297154 -0.65614249)
  triclinic box = (-0.10145586 -0.095204063 -0.092228589) to (15.610097 13.789846 17.001252) with tilt (-8.3709633 0.62297154 -0.66926534)

# Relax atoms positions

minimize 0 1e-10 100000 100000
Generated 6 of 6 mixed pair_coeff terms from arithmetic mixing rule
For more information see https://docs.lammps.org/err0027 (src/domain.cpp:1052)
Step          Temp          E_pair         E_mol          TotEng         Press
250125   303.46893     -342.73031      1460.3974      1447.84       -27941.52
Loop time of 0.026525 on 1 procs for 37 steps with 366 atoms

Minimization stats:
  Stopping criterion = linesearch alpha is zero
  Energy initial, next-to-last, final =
  Force two-norm initial, final = 710.12717 11.077263
  Force max component initial, final = 81.300163 1.7045786
  Final line search alpha, max atom move = 9.3715529e-11 1.5974548e-10
  Iterations, force evaluations = 37 129

# Obtain new stress tensor

variable tmp equal pe
variable e1 equal 778.95263667319
variable tmp equal press
variable p1 equal -15502.3659897287
variable tmp equal pxx
variable pxx1 equal -6848.00394989786
variable tmp equal pyy
variable pyy1 equal -23856.0582961936
variable tmp equal pzz
variable pzz1 equal -15803.0357230947
variable tmp equal pxy
variable pxy1 equal 3832.11797942964
variable tmp equal pxz
variable pxz1 equal -7214.2468611865
variable tmp equal pyz
variable pyz1 equal -7855.03903936167

# Compute elastic constant from pressure tensor

variable C1pos equal 57.0401214208457
variable C2pos equal 148.29718809781
variable C3pos equal 83.780965259262
variable C4pos equal 14.8268471470452
variable C5pos equal 10.4713813932205
variable C6pos equal -13.2995266109125

# Combine positive and negative

variable C12 equal 0.5*(48.1334983592741+57.0401214208457)
variable C22 equal 0.5*(142.419156503976+148.29718809781)
variable C32 equal 0.5*(24.0524378303515+83.780965259262)
variable C42 equal 0.5*(1.62345373947835+14.8268471470452)
variable C52 equal 0.5*(-22.9935318639647+10.4713813932205)
variable C62 equal 0.5*(28.1765387335799+-13.2995266109125)

# Delete dir to make sure it is not reused

variable dir delete

# uzz Perturbation

variable dir equal 3
include ./input/displace_333-HD-100C-20-VASP.mod
variable len0 equal 17.093480178614

# Reset box and simulation parameters

clear
box tilt large

The 'box' command has been removed and will be ignored

read_restart restart_333-HD-100C-20-VASP.equil
Reading restart file ...
  restart file = 10 Sep 2025, LAMMPS = 10 Sep 2025
  restoring atom style full from restart
  triclinic box = (-0.10145586 -0.095204063 -0.092228589) to (15.610097 13.51759 17.001252) with tilt (-8.3709633 0.62297154 -0.65614249)
  restoring pair style lj/cut from restart
  restoring bond style harmonic from restart
  restoring angle style hybrid from restart
  restoring dihedral style harmonic from restart
  366 atoms
  408 bonds
  792 angles
  1080 dihedrals
Finding 1-2 1-3 1-4 neighbors ...
     4 = max # of 1-2 neighbors
    10 = max # of 1-3 neighbors
    14 = max # of special neighbors
  read_restart CPU = 0.001 seconds
include ./input/angles_333-HD-100C-20-VASP.mod
angle_style hybrid fourier cosine/periodic
angle_coeff 1 fourier 157.882480        0.343737        0.374972        0.281246
angle_coeff 2 fourier 221.735285        0.343737        0.374972        0.281246
angle_coeff 3 fourier 114.246973        0.343737        0.374972        0.281246
angle_coeff 4 fourier 90.420412        0.343737        0.374972        0.281246
angle_coeff 5 fourier 75.498766        0.343737        0.374972        0.281246
angle_coeff 6 cosine/periodic 88.853997              -1               3

# Negative deformation

variable delta equal -0.02*17.093480178614
variable deltaxy equal -0.02*xy
variable deltaxz equal -0.02*xz
variable deltayz equal -0.02*yz
change_box all z delta 0 -0.34186960357228 remap units box
Changing box ...
  triclinic box = (-0.10145586 -0.095204063 -0.092228589) to (15.610097 13.51759 16.659382) with tilt (-8.3709633 0.62297154 -0.65614249)

# Relax atoms positions

minimize 0 1e-10 100000 100000
Generated 6 of 6 mixed pair_coeff terms from arithmetic mixing rule
For more information see https://docs.lammps.org/err0027 (src/domain.cpp:1052)
Step          Temp          E_pair         E_mol          TotEng         Press
250125   303.46893     -258.07261      1376.8655      1448.9657      38513.902
Loop time of 0.030921 on 1 procs for 46 steps with 366 atoms

Minimization stats:
  Stopping criterion = linesearch alpha is zero
  Energy initial, next-to-last, final =
  Force two-norm initial, final = 701.72591 10.108521
  Force max component initial, final = 85.832621 1.2394519
  Final line search alpha, max atom move = 1.1730227e-10 1.4539053e-10
  Iterations, force evaluations = 46 147

# Obtain new stress tensor

variable tmp equal pxx
variable pxx1 equal 14443.7022265992
variable tmp equal pyy
variable pyy1 equal 15669.8545300374
variable tmp equal pzz
variable pzz1 equal 20736.2530898514
variable tmp equal pxy
variable pxy1 equal 5631.51025216217
variable tmp equal pxz
variable pxz1 equal -9098.67072119183
variable tmp equal pyz
variable pyz1 equal -5097.06803851427

# Compute elastic constant from pressure tensor

variable C1neg equal 49.4184094616396
variable C2neg equal 49.3323760333452
variable C3neg equal 98.9154788054685
variable C4neg equal -1.03699214280815
variable C5neg equal -19.8935006932471
variable C6neg equal 22.2964879745752

# Reset box and simulation parameters

clear
box tilt large

The 'box' command has been removed and will be ignored

read_restart restart_333-HD-100C-20-VASP.equil
Reading restart file ...
  restart file = 10 Sep 2025, LAMMPS = 10 Sep 2025
  restoring atom style full from restart
  triclinic box = (-0.10145586 -0.095204063 -0.092228589) to (15.610097 13.51759 17.001252) with tilt (-8.3709633 0.62297154 -0.65614249)
  restoring pair style lj/cut from restart
  restoring bond style harmonic from restart
  restoring angle style hybrid from restart
  restoring dihedral style harmonic from restart
  366 atoms
  408 bonds
  792 angles
  1080 dihedrals
Finding 1-2 1-3 1-4 neighbors ...
     4 = max # of 1-2 neighbors
    10 = max # of 1-3 neighbors
    14 = max # of special neighbors
  read_restart CPU = 0.001 seconds
include ./input/angles_333-HD-100C-20-VASP.mod
angle_style hybrid fourier cosine/periodic
angle_coeff 1 fourier 157.882480        0.343737        0.374972        0.281246
angle_coeff 2 fourier 221.735285        0.343737        0.374972        0.281246
angle_coeff 3 fourier 114.246973        0.343737        0.374972        0.281246
angle_coeff 4 fourier 90.420412        0.343737        0.374972        0.281246
angle_coeff 5 fourier 75.498766        0.343737        0.374972        0.281246
angle_coeff 6 cosine/periodic 88.853997              -1               3

# Positive deformation

variable delta equal 0.02*17.093480178614
variable deltaxy equal 0.02*xy
variable deltaxz equal 0.02*xz
variable deltayz equal 0.02*yz
change_box all z delta 0 0.34186960357228 remap units box
Changing box ...
  triclinic box = (-0.10145586 -0.095204063 -0.092228589) to (15.610097 13.51759 17.343121) with tilt (-8.3709633 0.62297154 -0.65614249)

# Relax atoms positions

minimize 0 1e-10 100000 100000
Generated 6 of 6 mixed pair_coeff terms from arithmetic mixing rule
For more information see https://docs.lammps.org/err0027 (src/domain.cpp:1052)
Step          Temp          E_pair         E_mol          TotEng         Press
250125   303.46893     -344.81         1468.9312      1454.2941     -29451.422
Loop time of 0.02524 on 1 procs for 34 steps with 366 atoms

Minimization stats:
  Stopping criterion = linesearch alpha is zero
  Energy initial, next-to-last, final =
  Force two-norm initial, final = 683.7843 11.508602
  Force max component initial, final = 73.931581 1.3483352
  Final line search alpha, max atom move = 7.4746777e-11 1.0078371e-10
  Iterations, force evaluations = 34 123

# Obtain new stress tensor

variable tmp equal pe
variable e1 equal 788.769059060563
variable tmp equal press
variable p1 equal -14697.7531325852
variable tmp equal pxx
variable pxx1 equal -7108.82420433613
variable tmp equal pyy
variable pyy1 equal -6286.36638884765
variable tmp equal pzz
variable pzz1 equal -30698.0688045719
variable tmp equal pxy
variable pxy1 equal 4771.11271001595
variable tmp equal pxz
variable pxz1 equal -7468.08996958987
variable tmp equal pyz
variable pyz1 equal -7216.25534384012

# Compute elastic constant from pressure tensor

variable C1pos equal 58.344222693037
variable C2pos equal 60.4487285610801
variable C3pos equal 158.256130666648
variable C4pos equal 11.6329286694374
variable C5pos equal 11.7405969352373
variable C6pos equal -17.9945002638441

# Combine positive and negative

variable C13 equal 0.5*(49.4184094616396+58.344222693037)
variable C23 equal 0.5*(49.3323760333452+60.4487285610801)
variable C33 equal 0.5*(98.9154788054685+158.256130666648)
variable C43 equal 0.5*(-1.03699214280815+11.6329286694374)
variable C53 equal 0.5*(-19.8935006932471+11.7405969352373)
variable C63 equal 0.5*(22.2964879745752+-17.9945002638441)

# Delete dir to make sure it is not reused

variable dir delete

# uyz Perturbation

variable dir equal 4
include ./input/displace_333-HD-100C-20-VASP.mod
variable len0 equal 17.093480178614

# Reset box and simulation parameters

clear
box tilt large

The 'box' command has been removed and will be ignored

read_restart restart_333-HD-100C-20-VASP.equil
Reading restart file ...
  restart file = 10 Sep 2025, LAMMPS = 10 Sep 2025
  restoring atom style full from restart
  triclinic box = (-0.10145586 -0.095204063 -0.092228589) to (15.610097 13.51759 17.001252) with tilt (-8.3709633 0.62297154 -0.65614249)
  restoring pair style lj/cut from restart
  restoring bond style harmonic from restart
  restoring angle style hybrid from restart
  restoring dihedral style harmonic from restart
  366 atoms
  408 bonds
  792 angles
  1080 dihedrals
Finding 1-2 1-3 1-4 neighbors ...
     4 = max # of 1-2 neighbors
    10 = max # of 1-3 neighbors
    14 = max # of special neighbors
  read_restart CPU = 0.001 seconds
include ./input/angles_333-HD-100C-20-VASP.mod
angle_style hybrid fourier cosine/periodic
angle_coeff 1 fourier 157.882480        0.343737        0.374972        0.281246
angle_coeff 2 fourier 221.735285        0.343737        0.374972        0.281246
angle_coeff 3 fourier 114.246973        0.343737        0.374972        0.281246
angle_coeff 4 fourier 90.420412        0.343737        0.374972        0.281246
angle_coeff 5 fourier 75.498766        0.343737        0.374972        0.281246
angle_coeff 6 cosine/periodic 88.853997              -1               3

# Negative deformation

variable delta equal -0.02*17.093480178614
variable deltaxy equal -0.02*xy
variable deltaxz equal -0.02*xz
variable deltayz equal -0.02*yz
change_box all yz delta -0.34186960357228 remap units box
Changing box ...
  triclinic box = (-0.10145586 -0.095204063 -0.092228589) to (15.610097 13.51759 17.001252) with tilt (-8.3709633 0.62297154 -0.99801209)

# Relax atoms positions

minimize 0 1e-10 100000 100000
Generated 6 of 6 mixed pair_coeff terms from arithmetic mixing rule
For more information see https://docs.lammps.org/err0027 (src/domain.cpp:1052)
Step          Temp          E_pair         E_mol          TotEng         Press
250125   303.46893     -302.41202      1397.7772      1425.538       4321.2875
Loop time of 0.0269588 on 1 procs for 37 steps with 366 atoms

Minimization stats:
  Stopping criterion = linesearch alpha is zero
  Energy initial, next-to-last, final =
  Force two-norm initial, final = 675.18941 9.5290221
  Force max component initial, final = 81.620987 1.2740798
  Final line search alpha, max atom move = 7.777977e-11 9.9097636e-11
  Iterations, force evaluations = 37 129

# Obtain new stress tensor

variable tmp equal pxx
variable pxx1 equal 2964.02275243252
variable tmp equal pyy
variable pyy1 equal 5762.31900238667
variable tmp equal pzz
variable pzz1 equal -4498.83807289494
variable tmp equal pxy
variable pxy1 equal 5627.14108844843
variable tmp equal pxz
variable pxz1 equal -7671.59661760226
variable tmp equal pyz
variable pyz1 equal 4600.35724185882

# Compute elastic constant from pressure tensor

variable C1neg equal -7.97998790919375
variable C2neg equal -0.20530160490845
variable C3neg equal -27.2599770082632
variable C4neg equal 47.4501342590573
variable C5neg equal -12.7581301752993
variable C6neg equal 22.2746421560065

# Reset box and simulation parameters

clear
box tilt large

The 'box' command has been removed and will be ignored

read_restart restart_333-HD-100C-20-VASP.equil
Reading restart file ...
  restart file = 10 Sep 2025, LAMMPS = 10 Sep 2025
  restoring atom style full from restart
  triclinic box = (-0.10145586 -0.095204063 -0.092228589) to (15.610097 13.51759 17.001252) with tilt (-8.3709633 0.62297154 -0.65614249)
  restoring pair style lj/cut from restart
  restoring bond style harmonic from restart
  restoring angle style hybrid from restart
  restoring dihedral style harmonic from restart
  366 atoms
  408 bonds
  792 angles
  1080 dihedrals
Finding 1-2 1-3 1-4 neighbors ...
     4 = max # of 1-2 neighbors
    10 = max # of 1-3 neighbors
    14 = max # of special neighbors
  read_restart CPU = 0.001 seconds
include ./input/angles_333-HD-100C-20-VASP.mod
angle_style hybrid fourier cosine/periodic
angle_coeff 1 fourier 157.882480        0.343737        0.374972        0.281246
angle_coeff 2 fourier 221.735285        0.343737        0.374972        0.281246
angle_coeff 3 fourier 114.246973        0.343737        0.374972        0.281246
angle_coeff 4 fourier 90.420412        0.343737        0.374972        0.281246
angle_coeff 5 fourier 75.498766        0.343737        0.374972        0.281246
angle_coeff 6 cosine/periodic 88.853997              -1               3

# Positive deformation

variable delta equal 0.02*17.093480178614
variable deltaxy equal 0.02*xy
variable deltaxz equal 0.02*xz
variable deltayz equal 0.02*yz
change_box all yz delta 0.34186960357228 remap units box
Changing box ...
  triclinic box = (-0.10145586 -0.095204063 -0.092228589) to (15.610097 13.51759 17.001252) with tilt (-8.3709633 0.62297154 -0.31427289)

# Relax atoms positions

minimize 0 1e-10 100000 100000
Generated 6 of 6 mixed pair_coeff terms from arithmetic mixing rule
For more information see https://docs.lammps.org/err0027 (src/domain.cpp:1052)
Step          Temp          E_pair         E_mol          TotEng         Press
250125   303.46893     -307.71763      1413.8399      1436.2951      2873.0241
Loop time of 0.0212371 on 1 procs for 22 steps with 366 atoms

Minimization stats:
  Stopping criterion = linesearch alpha is zero
  Energy initial, next-to-last, final =
  Force two-norm initial, final = 686.65044 24.312286
  Force max component initial, final = 74.371687 2.863972
  Final line search alpha, max atom move = 1.6553738e-11 4.7409443e-11
  Iterations, force evaluations = 22 101

# Obtain new stress tensor

variable tmp equal pe
variable e1 equal 780.650849982547
variable tmp equal press
variable p1 equal 4.75040860399919
variable tmp equal pxx
variable pxx1 equal 3749.2833105537
variable tmp equal pyy
variable pyy1 equal 1738.09563814868
variable tmp equal pzz
variable pzz1 equal -5473.12772289038
variable tmp equal pxy
variable pxy1 equal 5119.46483318191
variable tmp equal pxz
variable pxz1 equal -9170.61048933201
variable tmp equal pyz
variable pyz1 equal -18608.8597815583

# Compute elastic constant from pressure tensor

variable C1pos equal 4.05368511858785
variable C2pos equal 20.3264184260984
variable C3pos equal 32.1314252582404
variable C4pos equal 68.5959508580283
variable C5pos equal 20.253199533948
variable C6pos equal -19.7362608796738

# Combine positive and negative

variable C14 equal 0.5*(-7.97998790919375+4.05368511858785)
variable C24 equal 0.5*(-0.20530160490845+20.3264184260984)
variable C34 equal 0.5*(-27.2599770082632+32.1314252582404)
variable C44 equal 0.5*(47.4501342590573+68.5959508580283)
variable C54 equal 0.5*(-12.7581301752993+20.253199533948)
variable C64 equal 0.5*(22.2746421560065+-19.7362608796738)

# Delete dir to make sure it is not reused

variable dir delete

# uxz Perturbation

variable dir equal 5
include ./input/displace_333-HD-100C-20-VASP.mod
variable len0 equal 17.093480178614

# Reset box and simulation parameters

clear
box tilt large

The 'box' command has been removed and will be ignored

read_restart restart_333-HD-100C-20-VASP.equil
Reading restart file ...
  restart file = 10 Sep 2025, LAMMPS = 10 Sep 2025
  restoring atom style full from restart
  triclinic box = (-0.10145586 -0.095204063 -0.092228589) to (15.610097 13.51759 17.001252) with tilt (-8.3709633 0.62297154 -0.65614249)
  restoring pair style lj/cut from restart
  restoring bond style harmonic from restart
  restoring angle style hybrid from restart
  restoring dihedral style harmonic from restart
  366 atoms
  408 bonds
  792 angles
  1080 dihedrals
Finding 1-2 1-3 1-4 neighbors ...
     4 = max # of 1-2 neighbors
    10 = max # of 1-3 neighbors
    14 = max # of special neighbors
  read_restart CPU = 0.001 seconds
include ./input/angles_333-HD-100C-20-VASP.mod
angle_style hybrid fourier cosine/periodic
angle_coeff 1 fourier 157.882480        0.343737        0.374972        0.281246
angle_coeff 2 fourier 221.735285        0.343737        0.374972        0.281246
angle_coeff 3 fourier 114.246973        0.343737        0.374972        0.281246
angle_coeff 4 fourier 90.420412        0.343737        0.374972        0.281246
angle_coeff 5 fourier 75.498766        0.343737        0.374972        0.281246
angle_coeff 6 cosine/periodic 88.853997              -1               3

# Negative deformation

variable delta equal -0.02*17.093480178614
variable deltaxy equal -0.02*xy
variable deltaxz equal -0.02*xz
variable deltayz equal -0.02*yz
change_box all xz delta -0.34186960357228 remap units box
Changing box ...
  triclinic box = (-0.10145586 -0.095204063 -0.092228589) to (15.610097 13.51759 17.001252) with tilt (-8.3709633 0.28110193 -0.65614249)

# Relax atoms positions

minimize 0 1e-10 100000 100000
Generated 6 of 6 mixed pair_coeff terms from arithmetic mixing rule
For more information see https://docs.lammps.org/err0027 (src/domain.cpp:1052)
Step          Temp          E_pair         E_mol          TotEng         Press
250125   303.46893     -303.8442       1400.1235      1426.4522      3660.8302
Loop time of 0.0221862 on 1 procs for 24 steps with 366 atoms

Minimization stats:
  Stopping criterion = linesearch alpha is zero
  Energy initial, next-to-last, final =
  Force two-norm initial, final = 690.96491 22.332269
  Force max component initial, final = 79.070073 2.7622387
  Final line search alpha, max atom move = 1.3970545e-11 3.8589979e-11
  Iterations, force evaluations = 24 105

# Obtain new stress tensor

variable tmp equal pxx
variable pxx1 equal 4257.02785065538
variable tmp equal pyy
variable pyy1 equal 2872.12039625557
variable tmp equal pzz
variable pzz1 equal -5976.74093034542
variable tmp equal pxy
variable pxy1 equal 5899.49688050297
variable tmp equal pxz
variable pxz1 equal 3196.84079285628
variable tmp equal pyz
variable pyz1 equal -5925.06770631074

# Compute elastic constant from pressure tensor

variable C1neg equal -1.51496241807945
variable C2neg equal -14.6562946355639
variable C3neg equal -34.6494912955156
variable C4neg equal -5.1769904817905
variable C5neg equal 41.5840568769934
variable C6neg equal 23.6364211162792

# Reset box and simulation parameters

clear
box tilt large

The 'box' command has been removed and will be ignored

read_restart restart_333-HD-100C-20-VASP.equil
Reading restart file ...
  restart file = 10 Sep 2025, LAMMPS = 10 Sep 2025
  restoring atom style full from restart
  triclinic box = (-0.10145586 -0.095204063 -0.092228589) to (15.610097 13.51759 17.001252) with tilt (-8.3709633 0.62297154 -0.65614249)
  restoring pair style lj/cut from restart
  restoring bond style harmonic from restart
  restoring angle style hybrid from restart
  restoring dihedral style harmonic from restart
  366 atoms
  408 bonds
  792 angles
  1080 dihedrals
Finding 1-2 1-3 1-4 neighbors ...
     4 = max # of 1-2 neighbors
    10 = max # of 1-3 neighbors
    14 = max # of special neighbors
  read_restart CPU = 0.001 seconds
include ./input/angles_333-HD-100C-20-VASP.mod
angle_style hybrid fourier cosine/periodic
angle_coeff 1 fourier 157.882480        0.343737        0.374972        0.281246
angle_coeff 2 fourier 221.735285        0.343737        0.374972        0.281246
angle_coeff 3 fourier 114.246973        0.343737        0.374972        0.281246
angle_coeff 4 fourier 90.420412        0.343737        0.374972        0.281246
angle_coeff 5 fourier 75.498766        0.343737        0.374972        0.281246
angle_coeff 6 cosine/periodic 88.853997              -1               3

# Positive deformation

variable delta equal 0.02*17.093480178614
variable deltaxy equal 0.02*xy
variable deltaxz equal 0.02*xz
variable deltayz equal 0.02*yz
change_box all xz delta 0.34186960357228 remap units box
Changing box ...
  triclinic box = (-0.10145586 -0.095204063 -0.092228589) to (15.610097 13.51759 17.001252) with tilt (-8.3709633 0.96484114 -0.65614249)

# Relax atoms positions

minimize 0 1e-10 100000 100000
Generated 6 of 6 mixed pair_coeff terms from arithmetic mixing rule
For more information see https://docs.lammps.org/err0027 (src/domain.cpp:1052)
Step          Temp          E_pair         E_mol          TotEng         Press
250125   303.46893     -307.02312      1412.394       1435.5437      3515.5825
Loop time of 0.0231813 on 1 procs for 28 steps with 366 atoms

Minimization stats:
  Stopping criterion = linesearch alpha is zero
  Energy initial, next-to-last, final =
  Force two-norm initial, final = 672.32965 18.983977
  Force max component initial, final = 79.2275 2.5220032
  Final line search alpha, max atom move = 2.9736217e-11 7.4994835e-11
  Iterations, force evaluations = 28 111

# Obtain new stress tensor

variable tmp equal pe
variable e1 equal 780.377539912167
variable tmp equal press
variable p1 equal 878.151912914371
variable tmp equal pxx
variable pxx1 equal 2348.54770689015
variable tmp equal pyy
variable pyy1 equal 4698.63656598897
variable tmp equal pzz
variable pzz1 equal -4412.728534136
variable tmp equal pxy
variable pxy1 equal 5249.14824112036
variable tmp equal pxz
variable pxz1 equal -19840.1271329534
variable tmp equal pyz
variable pyz1 equal -6886.63787333056

# Compute elastic constant from pressure tensor

variable C1pos equal 11.0573631369056
variable C2pos equal 5.52371378689695
variable C3pos equal 26.8294293144685
variable C4pos equal 9.9848413168896
variable C5pos equal 73.600782752055
variable C6pos equal -20.3846779193661

# Combine positive and negative

variable C15 equal 0.5*(-1.51496241807945+11.0573631369056)
variable C25 equal 0.5*(-14.6562946355639+5.52371378689695)
variable C35 equal 0.5*(-34.6494912955156+26.8294293144685)
variable C45 equal 0.5*(-5.1769904817905+9.9848413168896)
variable C55 equal 0.5*(41.5840568769934+73.600782752055)
variable C65 equal 0.5*(23.6364211162792+-20.3846779193661)

# Delete dir to make sure it is not reused

variable dir delete

# uxy Perturbation

variable dir equal 6
include ./input/displace_333-HD-100C-20-VASP.mod
variable len0 equal 13.6127941268845

# Reset box and simulation parameters

clear
box tilt large

The 'box' command has been removed and will be ignored

read_restart restart_333-HD-100C-20-VASP.equil
Reading restart file ...
  restart file = 10 Sep 2025, LAMMPS = 10 Sep 2025
  restoring atom style full from restart
  triclinic box = (-0.10145586 -0.095204063 -0.092228589) to (15.610097 13.51759 17.001252) with tilt (-8.3709633 0.62297154 -0.65614249)
  restoring pair style lj/cut from restart
  restoring bond style harmonic from restart
  restoring angle style hybrid from restart
  restoring dihedral style harmonic from restart
  366 atoms
  408 bonds
  792 angles
  1080 dihedrals
Finding 1-2 1-3 1-4 neighbors ...
     4 = max # of 1-2 neighbors
    10 = max # of 1-3 neighbors
    14 = max # of special neighbors
  read_restart CPU = 0.001 seconds
include ./input/angles_333-HD-100C-20-VASP.mod
angle_style hybrid fourier cosine/periodic
angle_coeff 1 fourier 157.882480        0.343737        0.374972        0.281246
angle_coeff 2 fourier 221.735285        0.343737        0.374972        0.281246
angle_coeff 3 fourier 114.246973        0.343737        0.374972        0.281246
angle_coeff 4 fourier 90.420412        0.343737        0.374972        0.281246
angle_coeff 5 fourier 75.498766        0.343737        0.374972        0.281246
angle_coeff 6 cosine/periodic 88.853997              -1               3

# Negative deformation

variable delta equal -0.02*13.6127941268845
variable deltaxy equal -0.02*xy
variable deltaxz equal -0.02*xz
variable deltayz equal -0.02*yz
change_box all xy delta -0.27225588253769 remap units box
Changing box ...
  triclinic box = (-0.10145586 -0.095204063 -0.092228589) to (15.610097 13.51759 17.001252) with tilt (-8.6432192 0.62297154 -0.65614249)

# Relax atoms positions

minimize 0 1e-10 100000 100000
Generated 6 of 6 mixed pair_coeff terms from arithmetic mixing rule
For more information see https://docs.lammps.org/err0027 (src/domain.cpp:1052)
Step          Temp          E_pair         E_mol          TotEng         Press
250125   303.46893     -303.03045      1403.275       1430.4175      3613.3202
Loop time of 0.0243792 on 1 procs for 32 steps with 366 atoms

Minimization stats:
  Stopping criterion = linesearch alpha is zero
  Energy initial, next-to-last, final =
  Force two-norm initial, final = 679.74118 13.261865
  Force max component initial, final = 84.378865 1.6355272
  Final line search alpha, max atom move = 7.0296291e-11 1.149715e-10
  Iterations, force evaluations = 32 117

# Obtain new stress tensor

variable tmp equal pxx
variable pxx1 equal 4072.13602810741
variable tmp equal pyy
variable pyy1 equal 5714.04723297753
variable tmp equal pzz
variable pzz1 equal -5319.59179402224
variable tmp equal pxy
variable pxy1 equal 14894.8775066462
variable tmp equal pxz
variable pxz1 equal -7820.41064312346
variable tmp equal pyz
variable pyz1 equal -6117.95916336575

# Compute elastic constant from pressure tensor

variable C1neg equal -2.4394215308193
variable C2neg equal -0.446660451954149
variable C3neg equal -31.3637456138997
variable C4neg equal -6.14144776706555
variable C5neg equal -13.5022003029053
variable C6neg equal 68.6133242469953

# Reset box and simulation parameters

clear
box tilt large

The 'box' command has been removed and will be ignored

read_restart restart_333-HD-100C-20-VASP.equil
Reading restart file ...
  restart file = 10 Sep 2025, LAMMPS = 10 Sep 2025
  restoring atom style full from restart
  triclinic box = (-0.10145586 -0.095204063 -0.092228589) to (15.610097 13.51759 17.001252) with tilt (-8.3709633 0.62297154 -0.65614249)
  restoring pair style lj/cut from restart
  restoring bond style harmonic from restart
  restoring angle style hybrid from restart
  restoring dihedral style harmonic from restart
  366 atoms
  408 bonds
  792 angles
  1080 dihedrals
Finding 1-2 1-3 1-4 neighbors ...
     4 = max # of 1-2 neighbors
    10 = max # of 1-3 neighbors
    14 = max # of special neighbors
  read_restart CPU = 0.001 seconds
include ./input/angles_333-HD-100C-20-VASP.mod
angle_style hybrid fourier cosine/periodic
angle_coeff 1 fourier 157.882480        0.343737        0.374972        0.281246
angle_coeff 2 fourier 221.735285        0.343737        0.374972        0.281246
angle_coeff 3 fourier 114.246973        0.343737        0.374972        0.281246
angle_coeff 4 fourier 90.420412        0.343737        0.374972        0.281246
angle_coeff 5 fourier 75.498766        0.343737        0.374972        0.281246
angle_coeff 6 cosine/periodic 88.853997              -1               3

# Positive deformation

variable delta equal 0.02*13.6127941268845
variable deltaxy equal 0.02*xy
variable deltaxz equal 0.02*xz
variable deltayz equal 0.02*yz
change_box all xy delta 0.27225588253769 remap units box
Changing box ...
  triclinic box = (-0.10145586 -0.095204063 -0.092228589) to (15.610097 13.51759 17.001252) with tilt (-8.0987075 0.62297154 -0.65614249)

# Relax atoms positions

minimize 0 1e-10 100000 100000
Generated 6 of 6 mixed pair_coeff terms from arithmetic mixing rule
For more information see https://docs.lammps.org/err0027 (src/domain.cpp:1052)
Step          Temp          E_pair         E_mol          TotEng         Press
250125   303.46893     -308.45652      1405.5873      1427.3036      3576.2185
Loop time of 0.0272702 on 1 procs for 38 steps with 366 atoms

Minimization stats:
  Stopping criterion = linesearch alpha is zero
  Energy initial, next-to-last, final =
  Force two-norm initial, final = 681.9188 9.4266482
  Force max component initial, final = 76.891609 1.1167014
  Final line search alpha, max atom move = 7.8944286e-11 8.8157194e-11
  Iterations, force evaluations = 38 131

# Obtain new stress tensor

variable tmp equal pe
variable e1 equal 764.807182848735
variable tmp equal press
variable p1 equal -543.453150039612
variable tmp equal pxx
variable pxx1 equal 1641.0613788972
variable tmp equal pyy
variable pyy1 equal 2775.09564755966
variable tmp equal pzz
variable pzz1 equal -6046.5164765757
variable tmp equal pxy
variable pxy1 equal -4266.31984815884
variable tmp equal pxz
variable pxz1 equal -8835.38116616001
variable tmp equal pyz
variable pyz1 equal -6461.58986764554

# Compute elastic constant from pressure tensor

variable C1pos equal 14.5947947768704
variable C2pos equal 15.1414183790435
variable C3pos equal 34.998369026667
variable C4pos equal 7.8596012884645
variable C5pos equal 18.5770529180881
variable C6pos equal 27.1926625270299

# Combine positive and negative

variable C16 equal 0.5*(-2.4394215308193+14.5947947768704)
variable C26 equal 0.5*(-0.446660451954149+15.1414183790435)
variable C36 equal 0.5*(-31.3637456138997+34.998369026667)
variable C46 equal 0.5*(-6.14144776706555+7.8596012884645)
variable C56 equal 0.5*(-13.5022003029053+18.5770529180881)
variable C66 equal 0.5*(68.6133242469953+27.1926625270299)

# Delete dir to make sure it is not reused

variable dir delete

# Output final values

variable C11all equal 140.320946994257
variable C22all equal 145.358172300893
variable C33all equal 128.585804736058

variable C12all equal 0.5*(52.5868098900599+54.3562903677989)
variable C13all equal 0.5*(53.8813160773383+52.4617239475967)
variable C23all equal 0.5*(54.8905522972127+53.9167015448068)

variable C44all equal 58.0230425585428
variable C55all equal 57.5924198145242
variable C66all equal 47.9029933870126

variable C14all equal 0.5*(-1.96315139530295+-0.6857937634963)
variable C15all equal 0.5*(4.77120035941307+2.7161450893508)
variable C16all equal 0.5*(6.07768662302555+6.29484526975405)

variable C24all equal 0.5*(10.060558410595+8.22515044326178)
variable C25all equal 0.5*(-4.56629042433347+-6.2610752353721)
variable C26all equal 0.5*(7.34737896354468+7.4385060613337)

variable C34all equal 0.5*(2.4357241249886+5.29796826331462)
variable C35all equal 0.5*(-3.91003099052355+-4.0764518790049)
variable C36all equal 0.5*(1.81731170638365+2.15099385536555)

variable C45all equal 0.5*(2.40392541754955+3.74753467932435)
variable C46all equal 0.5*(0.859076760699475+1.26919063816635)
variable C56all equal 0.5*(2.5374263075914+1.62587159845655)

# Average moduli for cubic crystals

variable C11cubic equal (140.320946994257+145.358172300893+128.585804736058)/3.0
variable C12cubic equal (53.4715501289294+53.1715200124675+54.4036269210097)/3.0
variable C44cubic equal (58.0230425585428+57.5924198145242+47.9029933870126)/3.0

variable bulkmodulus equal (138.088308010403+2*53.6822323541355)/3.0
variable shearmodulus1 equal 54.5061519200265
variable shearmodulus2 equal (138.088308010403-53.6822323541355)/2.0
variable poissonratio equal 1.0/(1.0+138.088308010403/53.6822323541355)

Elastic Constant 1 1 = 140.320946994257
Elastic Constant 2 2 = 145.358172300893
Elastic Constant 3 3 = 128.585804736058

Elastic Constant 1 2 = 53.4715501289294
Elastic Constant 1 3 = 53.1715200124675
Elastic Constant 2 3 = 54.4036269210097

Elastic Constant 4 4 = 58.0230425585428
Elastic Constant 5 5 = 57.5924198145242
Elastic Constant 6 6 = 47.9029933870126

Elastic Constant 1 4 = -1.32447257939963
Elastic Constant 1 5 = 3.74367272438193
Elastic Constant 1 6 = 6.1862659463898

Elastic Constant 2 4 = 9.14285442692839
Elastic Constant 2 5 = -5.41368282985279
Elastic Constant 2 6 = 7.39294251243919

Elastic Constant 3 4 = 3.86684619415161
Elastic Constant 3 5 = -3.99324143476422
Elastic Constant 3 6 = 1.9841527808746

Elastic Constant 4 5 = 3.07573004843695
Elastic Constant 4 6 = 1.06413369943291
Elastic Constant 5 6 = 2.08164895302397

Bulk Modulus = 81.8175909062247 GPa
Shear Modulus 1 = 54.5061519200265 GPa
Shear Modulus 2 = 42.2030378281338 GPa
Poisson Ratio = 0.279929504563581

variable rho equal density
density (g/cm^3) = 1.95455215284348
