units           real
atom_style      full
boundary        p p p

pair_style      lj/cut 5.000
bond_style      harmonic
angle_style     hybrid fourier cosine/periodic
dihedral_style  harmonic

pair_modify     tail yes mix arithmetic
special_bonds   lj/coul 0.0 0.0 1.0
dielectric      1.0
box tilt        large

The 'box' command has been removed and will be ignored

read_data       ./dat/data.333U-50C-9-vasp
Reading data file ...
  triclinic box = (0 0 0) to (16.60779 13.446743 17.350162) with tilt (-9.450478 -1.071671 0.003425)
  reading atoms ...
  386 atoms
  scanning bonds ...
  scanning angles ...
  scanning dihedrals ...
  triclinic box = (0 0 0) to (16.60779 13.446743 17.350162) with tilt (-9.450478 -1.071671 0.003425)
  reading bonds ...
  411 bonds
  reading angles ...
  781 angles
  reading dihedrals ...
  987 dihedrals
Finding 1-2 1-3 1-4 neighbors ...
     4 = max # of 1-2 neighbors
    10 = max # of 1-3 neighbors
    14 = max # of special neighbors

#### Atom Groupings ####
group           fram     id   1:386
386 atoms in group fram
#### END Atom Groupings ####

compute am all property/atom mass
dump        atom_pos all extxyz 100 ./output/333U-50C-9-vasp.lammpstrj
dump_modify atom_pos element Si C H O mass yes
thermo          1000
thermo_style    custom step temp pe ke etotal press vol density

variable up equal 2e-2
variable cfac equal 1.0e-4
variable cunits string GPa

# Define minimization parameters
variable etol equal 0.0
variable ftol equal 1.0e-10
variable maxiter equal 100000
variable maxeval equal 100000
variable dmax equal 1.0e-2

variable temp equal 300.0
variable thermal_damp index 100.0
variable pressure_damp index 500.0

fix relax all box/relax aniso 0.0 vmax 0.001
unfix relax
minimize 0 1e-10 100000 100000
Generated 6 of 6 mixed pair_coeff terms from arithmetic mixing rule
For more information see https://docs.lammps.org/err0027 (src/domain.cpp:1052)
Step          Temp          PotEng         KinEng         TotEng         Press          Volume        Density
0   0              1545.4986      0              1545.4986      111891.66      3874.65        1.7483484
Loop time of 0.0882277 on 1 procs for 149 steps with 386 atoms

Minimization stats:
  Stopping criterion = linesearch alpha is zero
  Energy initial, next-to-last, final =
  Force two-norm initial, final = 902.9394 18.237257
  Force max component initial, final = 97.052252 5.1135929
  Final line search alpha, max atom move = 2.8583841e-11 1.4616613e-10
  Iterations, force evaluations = 149 349

# Generating the full routine as described in the paper for UFF
fix nvt_relax   all nvt temp 300 300 100.0
run 100000      # 100 picoseconds
Generated 6 of 6 mixed pair_coeff terms from arithmetic mixing rule
For more information see https://docs.lammps.org/err0027 (src/domain.cpp:1052)
Step          Temp          PotEng         KinEng         TotEng         Press          Volume        Density
149   0              207.56205      0              207.56205      15868.504      3874.65        1.7483484
Averages over the last 51 of 102 rows, steps 51000 to 100149:
Temp PotEng KinEng TotEng Press Volume Density
301.316 509.022 345.794 854.816 17894.2 3874.65 1.74835
Loop time of 26.3317 on 1 procs for 100000 steps with 386 atoms

unfix           nvt_relax

fix npt_relax   all npt temp 300 300 100.0 iso 0 0 500.0
run 100000      # 100 picoseconds
Generated 6 of 6 mixed pair_coeff terms from arithmetic mixing rule
For more information see https://docs.lammps.org/err0027 (src/domain.cpp:1052)
Step          Temp          PotEng         KinEng         TotEng         Press          Volume        Density
100149   299.49888      532.16376      343.70847      875.87223      16733.472      3874.65        1.7483484
Averages over the last 51 of 102 rows, steps 151000 to 200149:
Temp PotEng KinEng TotEng Press Volume Density
300.183 500.837 344.494 845.331 -317.334 4015.41 1.68713
Loop time of 29.5235 on 1 procs for 100000 steps with 386 atoms

unfix           npt_relax

# run 100000      # 100 picoseconds
# unfix           nvt_heat
#
# run 100000      # 100 picoseconds
# unfix           npt_heat
#
# run 700000      # 700 picoseconds
# unfix           cooling_npt
#
# run 100000      # 100 picoseconds
# unfix           npt_final

# density computation
variable rho equal density
fix integrate  all npt temp 300 300 100.0 iso 0 0 500.0
fix rho50k all ave/time 10 5000 50000 v_rho mode scalar ave one
run 50000
Generated 6 of 6 mixed pair_coeff terms from arithmetic mixing rule
For more information see https://docs.lammps.org/err0027 (src/domain.cpp:1052)
Step          Temp          PotEng         KinEng         TotEng         Press          Volume        Density
200149   312.91034      499.16632      359.09962      858.26594     -2267.075       4029.0776      1.6813372
Averages over the last 26 of 52 rows, steps 226000 to 250149:
Temp PotEng KinEng TotEng Press Volume Density
301.949 492.759 346.52 839.28 254.445 4021.72 1.68445
Loop time of 14.2634 on 1 procs for 50000 steps with 386 atoms

unfix integrate
unfix rho50k

# Compute initial state
fix 3 all box/relax  aniso 0.0
minimize 0 1e-10 100000 100000
Generated 6 of 6 mixed pair_coeff terms from arithmetic mixing rule
 (src/min.cpp:222)
For more information see https://docs.lammps.org/err0027 (src/domain.cpp:1052)
Step          Temp          PotEng         KinEng         TotEng         Press          Volume        Density
250149   318.23872      493.48079      365.21453      858.69532      215.9843       4026.285       1.6825034
Loop time of 0.104945 on 1 procs for 275 steps with 386 atoms

Minimization stats:
  Stopping criterion = linesearch alpha is zero
  Energy initial, next-to-last, final =
  Force two-norm initial, final = 802.63188 146.21541
  Force max component initial, final = 336.70098 18.184782
  Final line search alpha, max atom move = 3.3294516e-13 6.054535e-12
  Iterations, force evaluations = 275 315

variable tmp equal pxx
variable pxx0 equal 3560.89850507567
variable tmp equal pyy
variable pyy0 equal 3740.26901488096
variable tmp equal pzz
variable pzz0 equal 4274.5196515337
variable tmp equal pyz
variable pyz0 equal 5184.98687078642
variable tmp equal pxz
variable pxz0 equal -1375.48362946277
variable tmp equal pxy
variable pxy0 equal 762.425608740613

variable tmp equal lx
variable lx0 equal 16.8620016990074
variable tmp equal ly
variable ly0 equal 13.5878790988403
variable tmp equal lz
variable lz0 equal 17.5568223672146

# These formulas define the derivatives w.r.t. strain components
# Constants uses $, variables use v_
variable d1 equal -(v_pxx1-3560.89850507567)/(v_delta/v_len0)*0.0001
variable d2 equal -(v_pyy1-3740.26901488096)/(v_delta/v_len0)*0.0001
variable d3 equal -(v_pzz1-4274.5196515337)/(v_delta/v_len0)*0.0001
variable d4 equal -(v_pyz1-5184.98687078642)/(v_delta/v_len0)*0.0001
variable d5 equal -(v_pxz1--1375.48362946277)/(v_delta/v_len0)*0.0001
variable d6 equal -(v_pxy1-762.425608740613)/(v_delta/v_len0)*0.0001

# Write restart
unfix 3
write_restart restart_333U-50C-9-vasp.equil
System init for write_restart ...
Generated 6 of 6 mixed pair_coeff terms from arithmetic mixing rule

# uxx Perturbation

variable dir equal 1
include ./input/displace_333U-50C-9-vasp.mod
variable len0 equal 16.8620016990074

# Reset box and simulation parameters

clear
box tilt large

The 'box' command has been removed and will be ignored

read_restart restart_333U-50C-9-vasp.equil
Reading restart file ...
  restart file = 10 Sep 2025, LAMMPS = 10 Sep 2025
  restoring atom style full from restart
  triclinic box = (-0.12710585 -0.070568049 -0.10333018) to (16.734896 13.517311 17.453492) with tilt (-9.5496696 -1.0844358 0.0034657957)
  restoring pair style lj/cut from restart
  restoring bond style harmonic from restart
  restoring angle style hybrid from restart
  restoring dihedral style harmonic from restart
  386 atoms
  411 bonds
  781 angles
  987 dihedrals
Finding 1-2 1-3 1-4 neighbors ...
     4 = max # of 1-2 neighbors
    10 = max # of 1-3 neighbors
    14 = max # of special neighbors
  read_restart CPU = 0.002 seconds
include ./input/angles_333U-50C-9-vasp.mod
angle_style hybrid fourier cosine/periodic
angle_coeff 1 fourier 157.882480        0.343737        0.374972        0.281246
angle_coeff 2 fourier 221.735285        0.343737        0.374972        0.281246
angle_coeff 3 fourier 83.380072        0.343737        0.374972        0.281246
angle_coeff 4 fourier 58.020602        0.343737        0.374972        0.281246
angle_coeff 5 fourier 114.246973        0.343737        0.374972        0.281246
angle_coeff 6 fourier 32.417871        0.343737        0.374972        0.281246
angle_coeff 7 fourier 90.420412        0.343737        0.374972        0.281246
angle_coeff 8 fourier 75.498766        0.343737        0.374972        0.281246
angle_coeff 9 cosine/periodic 88.853997              -1               3

# Negative deformation

variable delta equal -0.02*16.8620016990074
variable deltaxy equal -0.02*xy
variable deltaxz equal -0.02*xz
variable deltayz equal -0.02*yz
change_box all x delta 0 -0.337240033980148 xy delta 0.190993391470703 xz delta 0.0216887166622377 remap units box
Changing box ...
  triclinic box = (-0.12710585 -0.070568049 -0.10333018) to (16.397656 13.517311 17.453492) with tilt (-9.5496696 -1.0844358 0.0034657957)
  triclinic box = (-0.12710585 -0.070568049 -0.10333018) to (16.397656 13.517311 17.453492) with tilt (-9.3586762 -1.0844358 0.0034657957)
  triclinic box = (-0.12710585 -0.070568049 -0.10333018) to (16.397656 13.517311 17.453492) with tilt (-9.3586762 -1.0627471 0.0034657957)

# Relax atoms positions

minimize 0 1e-10 100000 100000
Generated 6 of 6 mixed pair_coeff terms from arithmetic mixing rule
For more information see https://docs.lammps.org/err0027 (src/domain.cpp:1052)
Step          Temp          E_pair         E_mol          TotEng         Press
250424   318.23872     -409.81377      706.88855      662.28931      30971.173
Loop time of 0.0347428 on 1 procs for 34 steps with 386 atoms

Minimization stats:
  Stopping criterion = linesearch alpha is zero
  Energy initial, next-to-last, final =
  Force two-norm initial, final = 224.48244 19.235394
  Force max component initial, final = 22.892163 2.6915408
  Final line search alpha, max atom move = 3.0662093e-11 8.2528272e-11
  Iterations, force evaluations = 34 123

# Obtain new stress tensor

variable tmp equal pxx
variable pxx1 equal 15229.2127016824
variable tmp equal pyy
variable pyy1 equal 8064.58867591657
variable tmp equal pzz
variable pzz1 equal 2315.65926832197
variable tmp equal pxy
variable pxy1 equal 2673.3667685125
variable tmp equal pxz
variable pxz1 equal -1061.34016193692
variable tmp equal pyz
variable pyz1 equal 4350.43184175247

# Compute elastic constant from pressure tensor

variable C1neg equal 58.3415709830337
variable C2neg equal 21.6215983051781
variable C3neg equal -9.79430191605865
variable C4neg equal -4.17277514516975
variable C5neg equal 1.57071733762925
variable C6neg equal 9.55470579885944

# Reset box and simulation parameters

clear
box tilt large

The 'box' command has been removed and will be ignored

read_restart restart_333U-50C-9-vasp.equil
Reading restart file ...
  restart file = 10 Sep 2025, LAMMPS = 10 Sep 2025
  restoring atom style full from restart
  triclinic box = (-0.12710585 -0.070568049 -0.10333018) to (16.734896 13.517311 17.453492) with tilt (-9.5496696 -1.0844358 0.0034657957)
  restoring pair style lj/cut from restart
  restoring bond style harmonic from restart
  restoring angle style hybrid from restart
  restoring dihedral style harmonic from restart
  386 atoms
  411 bonds
  781 angles
  987 dihedrals
Finding 1-2 1-3 1-4 neighbors ...
     4 = max # of 1-2 neighbors
    10 = max # of 1-3 neighbors
    14 = max # of special neighbors
  read_restart CPU = 0.002 seconds
include ./input/angles_333U-50C-9-vasp.mod
angle_style hybrid fourier cosine/periodic
angle_coeff 1 fourier 157.882480        0.343737        0.374972        0.281246
angle_coeff 2 fourier 221.735285        0.343737        0.374972        0.281246
angle_coeff 3 fourier 83.380072        0.343737        0.374972        0.281246
angle_coeff 4 fourier 58.020602        0.343737        0.374972        0.281246
angle_coeff 5 fourier 114.246973        0.343737        0.374972        0.281246
angle_coeff 6 fourier 32.417871        0.343737        0.374972        0.281246
angle_coeff 7 fourier 90.420412        0.343737        0.374972        0.281246
angle_coeff 8 fourier 75.498766        0.343737        0.374972        0.281246
angle_coeff 9 cosine/periodic 88.853997              -1               3

# Positive deformation

variable delta equal 0.02*16.8620016990074
variable deltaxy equal 0.02*xy
variable deltaxz equal 0.02*xz
variable deltayz equal 0.02*yz
change_box all x delta 0 0.337240033980148 xy delta -0.190993391470703 xz delta -0.0216887166622377 remap units box
Changing box ...
  triclinic box = (-0.12710585 -0.070568049 -0.10333018) to (17.072136 13.517311 17.453492) with tilt (-9.5496696 -1.0844358 0.0034657957)
  triclinic box = (-0.12710585 -0.070568049 -0.10333018) to (17.072136 13.517311 17.453492) with tilt (-9.740663 -1.0844358 0.0034657957)
  triclinic box = (-0.12710585 -0.070568049 -0.10333018) to (17.072136 13.517311 17.453492) with tilt (-9.740663 -1.1061245 0.0034657957)

# Relax atoms positions

minimize 0 1e-10 100000 100000
Generated 6 of 6 mixed pair_coeff terms from arithmetic mixing rule
For more information see https://docs.lammps.org/err0027 (src/domain.cpp:1052)
Step          Temp          E_pair         E_mol          TotEng         Press
250424   318.23872     -457.33737      754.32065      662.19782     -22288.277
Loop time of 0.0353172 on 1 procs for 39 steps with 386 atoms

Minimization stats:
  Stopping criterion = linesearch alpha is zero
  Energy initial, next-to-last, final =
  Force two-norm initial, final = 231.54278 14.231501
  Force max component initial, final = 23.078986 1.6261522
  Final line search alpha, max atom move = 5.0415537e-11 8.1983337e-11
  Iterations, force evaluations = 39 133

# Obtain new stress tensor

variable tmp equal pe
variable e1 equal 153.568016694479
variable tmp equal press
variable p1 equal -8865.75281868433
variable tmp equal pxx
variable pxx1 equal -10841.5417514223
variable tmp equal pyy
variable pyy1 equal -5473.93068214093
variable tmp equal pzz
variable pzz1 equal -10281.7860224897
variable tmp equal pxy
variable pxy1 equal 342.862569141127
variable tmp equal pxz
variable pxz1 equal 309.385012942012
variable tmp equal pyz
variable pyz1 equal 5049.26005095264

# Compute elastic constant from pressure tensor

variable C1pos equal 72.0122012824899
variable C2pos equal 46.0709984851094
variable C3pos equal 72.781528370117
variable C4pos equal 0.678634099168898
variable C5pos equal -8.42434321202391
variable C6pos equal 2.09781519799743

# Combine positive and negative

variable C11 equal 0.5*(58.3415709830337+72.0122012824899)
variable C21 equal 0.5*(21.6215983051781+46.0709984851094)
variable C31 equal 0.5*(-9.79430191605865+72.781528370117)
variable C41 equal 0.5*(-4.17277514516975+0.678634099168898)
variable C51 equal 0.5*(1.57071733762925+-8.42434321202391)
variable C61 equal 0.5*(9.55470579885944+2.09781519799743)

# Delete dir to make sure it is not reused

variable dir delete

# uyy Perturbation

variable dir equal 2
include ./input/displace_333U-50C-9-vasp.mod
variable len0 equal 13.5878790988403

# Reset box and simulation parameters

clear
box tilt large

The 'box' command has been removed and will be ignored

read_restart restart_333U-50C-9-vasp.equil
Reading restart file ...
  restart file = 10 Sep 2025, LAMMPS = 10 Sep 2025
  restoring atom style full from restart
  triclinic box = (-0.12710585 -0.070568049 -0.10333018) to (16.734896 13.517311 17.453492) with tilt (-9.5496696 -1.0844358 0.0034657957)
  restoring pair style lj/cut from restart
  restoring bond style harmonic from restart
  restoring angle style hybrid from restart
  restoring dihedral style harmonic from restart
  386 atoms
  411 bonds
  781 angles
  987 dihedrals
Finding 1-2 1-3 1-4 neighbors ...
     4 = max # of 1-2 neighbors
    10 = max # of 1-3 neighbors
    14 = max # of special neighbors
  read_restart CPU = 0.001 seconds
include ./input/angles_333U-50C-9-vasp.mod
angle_style hybrid fourier cosine/periodic
angle_coeff 1 fourier 157.882480        0.343737        0.374972        0.281246
angle_coeff 2 fourier 221.735285        0.343737        0.374972        0.281246
angle_coeff 3 fourier 83.380072        0.343737        0.374972        0.281246
angle_coeff 4 fourier 58.020602        0.343737        0.374972        0.281246
angle_coeff 5 fourier 114.246973        0.343737        0.374972        0.281246
angle_coeff 6 fourier 32.417871        0.343737        0.374972        0.281246
angle_coeff 7 fourier 90.420412        0.343737        0.374972        0.281246
angle_coeff 8 fourier 75.498766        0.343737        0.374972        0.281246
angle_coeff 9 cosine/periodic 88.853997              -1               3

# Negative deformation

variable delta equal -0.02*13.5878790988403
variable deltaxy equal -0.02*xy
variable deltaxz equal -0.02*xz
variable deltayz equal -0.02*yz
change_box all y delta 0 -0.271757581976806 yz delta -6.93159137162095e-05 remap units box
Changing box ...
  triclinic box = (-0.12710585 -0.070568049 -0.10333018) to (16.734896 13.245553 17.453492) with tilt (-9.5496696 -1.0844358 0.0034657957)
  triclinic box = (-0.12710585 -0.070568049 -0.10333018) to (16.734896 13.245553 17.453492) with tilt (-9.5496696 -1.0844358 0.0033964798)

# Relax atoms positions

minimize 0 1e-10 100000 100000
Generated 6 of 6 mixed pair_coeff terms from arithmetic mixing rule
For more information see https://docs.lammps.org/err0027 (src/domain.cpp:1052)
Step          Temp          E_pair         E_mol          TotEng         Press
250424   318.23872     -406.69407      705.62406      664.14452      31505.558
Loop time of 0.0392928 on 1 procs for 40 steps with 386 atoms

Minimization stats:
  Stopping criterion = linesearch alpha is zero
  Energy initial, next-to-last, final =
  Force two-norm initial, final = 230.42812 14.493754
  Force max component initial, final = 26.013686 1.8276571
  Final line search alpha, max atom move = 4.8950058e-11 8.9463921e-11
  Iterations, force evaluations = 40 135

# Obtain new stress tensor

variable tmp equal pxx
variable pxx1 equal 8090.03083274753
variable tmp equal pyy
variable pyy1 equal 15951.9372343058
variable tmp equal pzz
variable pzz1 equal 2793.32398059767
variable tmp equal pxy
variable pxy1 equal 3560.00894510626
variable tmp equal pxz
variable pxz1 equal 479.556559007126
variable tmp equal pyz
variable pyz1 equal 5076.8242433711

# Compute elastic constant from pressure tensor

variable C1neg equal 22.6456616383593
variable C2neg equal 61.0583410971242
variable C3neg equal -7.40597835468015
variable C4neg equal -0.540813137076598
variable C5neg equal 9.27520094234948
variable C6neg equal 13.9879166818282

# Reset box and simulation parameters

clear
box tilt large

The 'box' command has been removed and will be ignored

read_restart restart_333U-50C-9-vasp.equil
Reading restart file ...
  restart file = 10 Sep 2025, LAMMPS = 10 Sep 2025
  restoring atom style full from restart
  triclinic box = (-0.12710585 -0.070568049 -0.10333018) to (16.734896 13.517311 17.453492) with tilt (-9.5496696 -1.0844358 0.0034657957)
  restoring pair style lj/cut from restart
  restoring bond style harmonic from restart
  restoring angle style hybrid from restart
  restoring dihedral style harmonic from restart
  386 atoms
  411 bonds
  781 angles
  987 dihedrals
Finding 1-2 1-3 1-4 neighbors ...
     4 = max # of 1-2 neighbors
    10 = max # of 1-3 neighbors
    14 = max # of special neighbors
  read_restart CPU = 0.001 seconds
include ./input/angles_333U-50C-9-vasp.mod
angle_style hybrid fourier cosine/periodic
angle_coeff 1 fourier 157.882480        0.343737        0.374972        0.281246
angle_coeff 2 fourier 221.735285        0.343737        0.374972        0.281246
angle_coeff 3 fourier 83.380072        0.343737        0.374972        0.281246
angle_coeff 4 fourier 58.020602        0.343737        0.374972        0.281246
angle_coeff 5 fourier 114.246973        0.343737        0.374972        0.281246
angle_coeff 6 fourier 32.417871        0.343737        0.374972        0.281246
angle_coeff 7 fourier 90.420412        0.343737        0.374972        0.281246
angle_coeff 8 fourier 75.498766        0.343737        0.374972        0.281246
angle_coeff 9 cosine/periodic 88.853997              -1               3

# Positive deformation

variable delta equal 0.02*13.5878790988403
variable deltaxy equal 0.02*xy
variable deltaxz equal 0.02*xz
variable deltayz equal 0.02*yz
change_box all y delta 0 0.271757581976806 yz delta 6.93159137162095e-05 remap units box
Changing box ...
  triclinic box = (-0.12710585 -0.070568049 -0.10333018) to (16.734896 13.789069 17.453492) with tilt (-9.5496696 -1.0844358 0.0034657957)
  triclinic box = (-0.12710585 -0.070568049 -0.10333018) to (16.734896 13.789069 17.453492) with tilt (-9.5496696 -1.0844358 0.0035351116)

# Relax atoms positions

minimize 0 1e-10 100000 100000
Generated 6 of 6 mixed pair_coeff terms from arithmetic mixing rule
For more information see https://docs.lammps.org/err0027 (src/domain.cpp:1052)
Step          Temp          E_pair         E_mol          TotEng         Press
250424   318.23872     -458.10217      757.28616      664.39853     -22733.485
Loop time of 0.034677 on 1 procs for 34 steps with 386 atoms

Minimization stats:
  Stopping criterion = linesearch alpha is zero
  Energy initial, next-to-last, final =
  Force two-norm initial, final = 232.14001 17.265846
  Force max component initial, final = 25.498644 2.9140109
  Final line search alpha, max atom move = 3.3986658e-11 9.9037492e-11
  Iterations, force evaluations = 34 123

# Obtain new stress tensor

variable tmp equal pe
variable e1 equal 156.766050667018
variable tmp equal press
variable p1 equal -10186.9983554281
variable tmp equal pxx
variable pxx1 equal -5413.81299146949
variable tmp equal pyy
variable pyy1 equal -13897.1310594364
variable tmp equal pzz
variable pzz1 equal -11250.0510153785
variable tmp equal pxy
variable pxy1 equal -799.423722571783
variable tmp equal pxz
variable pxz1 equal -826.979549107349
variable tmp equal pyz
variable pyz1 equal 4742.09808108491

# Compute elastic constant from pressure tensor

variable C1pos equal 44.8735574827258
variable C2pos equal 88.1870003715868
variable C3pos equal 77.622853334561
variable C4pos equal 2.21444394850755
variable C5pos equal -2.74252040177711
variable C6pos equal 7.80924665656198

# Combine positive and negative

variable C12 equal 0.5*(22.6456616383593+44.8735574827258)
variable C22 equal 0.5*(61.0583410971242+88.1870003715868)
variable C32 equal 0.5*(-7.40597835468015+77.622853334561)
variable C42 equal 0.5*(-0.540813137076598+2.21444394850755)
variable C52 equal 0.5*(9.27520094234948+-2.74252040177711)
variable C62 equal 0.5*(13.9879166818282+7.80924665656198)

# Delete dir to make sure it is not reused

variable dir delete

# uzz Perturbation

variable dir equal 3
include ./input/displace_333U-50C-9-vasp.mod
variable len0 equal 17.5568223672146

# Reset box and simulation parameters

clear
box tilt large

The 'box' command has been removed and will be ignored

read_restart restart_333U-50C-9-vasp.equil
Reading restart file ...
  restart file = 10 Sep 2025, LAMMPS = 10 Sep 2025
  restoring atom style full from restart
  triclinic box = (-0.12710585 -0.070568049 -0.10333018) to (16.734896 13.517311 17.453492) with tilt (-9.5496696 -1.0844358 0.0034657957)
  restoring pair style lj/cut from restart
  restoring bond style harmonic from restart
  restoring angle style hybrid from restart
  restoring dihedral style harmonic from restart
  386 atoms
  411 bonds
  781 angles
  987 dihedrals
Finding 1-2 1-3 1-4 neighbors ...
     4 = max # of 1-2 neighbors
    10 = max # of 1-3 neighbors
    14 = max # of special neighbors
  read_restart CPU = 0.001 seconds
include ./input/angles_333U-50C-9-vasp.mod
angle_style hybrid fourier cosine/periodic
angle_coeff 1 fourier 157.882480        0.343737        0.374972        0.281246
angle_coeff 2 fourier 221.735285        0.343737        0.374972        0.281246
angle_coeff 3 fourier 83.380072        0.343737        0.374972        0.281246
angle_coeff 4 fourier 58.020602        0.343737        0.374972        0.281246
angle_coeff 5 fourier 114.246973        0.343737        0.374972        0.281246
angle_coeff 6 fourier 32.417871        0.343737        0.374972        0.281246
angle_coeff 7 fourier 90.420412        0.343737        0.374972        0.281246
angle_coeff 8 fourier 75.498766        0.343737        0.374972        0.281246
angle_coeff 9 cosine/periodic 88.853997              -1               3

# Negative deformation

variable delta equal -0.02*17.5568223672146
variable deltaxy equal -0.02*xy
variable deltaxz equal -0.02*xz
variable deltayz equal -0.02*yz
change_box all z delta 0 -0.351136447344292 remap units box
Changing box ...
  triclinic box = (-0.12710585 -0.070568049 -0.10333018) to (16.734896 13.517311 17.102356) with tilt (-9.5496696 -1.0844358 0.0034657957)

# Relax atoms positions

minimize 0 1e-10 100000 100000
Generated 6 of 6 mixed pair_coeff terms from arithmetic mixing rule
For more information see https://docs.lammps.org/err0027 (src/domain.cpp:1052)
Step          Temp          E_pair         E_mol          TotEng         Press
250424   318.23872     -406.62494      705.81104      664.40063      31958.555
Loop time of 0.0396277 on 1 procs for 39 steps with 386 atoms

Minimization stats:
  Stopping criterion = linesearch alpha is zero
  Energy initial, next-to-last, final =
  Force two-norm initial, final = 234.85908 15.21497
  Force max component initial, final = 23.609875 2.0540211
  Final line search alpha, max atom move = 3.8283447e-11 7.8635008e-11
  Iterations, force evaluations = 39 133

# Obtain new stress tensor

variable tmp equal pxx
variable pxx1 equal 7923.5375074745
variable tmp equal pyy
variable pyy1 equal 8287.82882859612
variable tmp equal pzz
variable pzz1 equal 10433.3358735877
variable tmp equal pxy
variable pxy1 equal 1565.31202403862
variable tmp equal pxz
variable pxz1 equal 44.5564973888598
variable tmp equal pyz
variable pyz1 equal 5740.26135427057

# Compute elastic constant from pressure tensor

variable C1neg equal 21.8131950119941
variable C2neg equal 22.7377990685758
variable C3neg equal 30.79408111027
variable C4neg equal 2.77637241742075
variable C5neg equal 7.10020063425815
variable C6neg equal 4.01443207649003

# Reset box and simulation parameters

clear
box tilt large

The 'box' command has been removed and will be ignored

read_restart restart_333U-50C-9-vasp.equil
Reading restart file ...
  restart file = 10 Sep 2025, LAMMPS = 10 Sep 2025
  restoring atom style full from restart
  triclinic box = (-0.12710585 -0.070568049 -0.10333018) to (16.734896 13.517311 17.453492) with tilt (-9.5496696 -1.0844358 0.0034657957)
  restoring pair style lj/cut from restart
  restoring bond style harmonic from restart
  restoring angle style hybrid from restart
  restoring dihedral style harmonic from restart
  386 atoms
  411 bonds
  781 angles
  987 dihedrals
Finding 1-2 1-3 1-4 neighbors ...
     4 = max # of 1-2 neighbors
    10 = max # of 1-3 neighbors
    14 = max # of special neighbors
  read_restart CPU = 0.001 seconds
include ./input/angles_333U-50C-9-vasp.mod
angle_style hybrid fourier cosine/periodic
angle_coeff 1 fourier 157.882480        0.343737        0.374972        0.281246
angle_coeff 2 fourier 221.735285        0.343737        0.374972        0.281246
angle_coeff 3 fourier 83.380072        0.343737        0.374972        0.281246
angle_coeff 4 fourier 58.020602        0.343737        0.374972        0.281246
angle_coeff 5 fourier 114.246973        0.343737        0.374972        0.281246
angle_coeff 6 fourier 32.417871        0.343737        0.374972        0.281246
angle_coeff 7 fourier 90.420412        0.343737        0.374972        0.281246
angle_coeff 8 fourier 75.498766        0.343737        0.374972        0.281246
angle_coeff 9 cosine/periodic 88.853997              -1               3

# Positive deformation

variable delta equal 0.02*17.5568223672146
variable deltaxy equal 0.02*xy
variable deltaxz equal 0.02*xz
variable deltayz equal 0.02*yz
change_box all z delta 0 0.351136447344292 remap units box
Changing box ...
  triclinic box = (-0.12710585 -0.070568049 -0.10333018) to (16.734896 13.517311 17.804629) with tilt (-9.5496696 -1.0844358 0.0034657957)

# Relax atoms positions

minimize 0 1e-10 100000 100000
Generated 6 of 6 mixed pair_coeff terms from arithmetic mixing rule
For more information see https://docs.lammps.org/err0027 (src/domain.cpp:1052)
Step          Temp          E_pair         E_mol          TotEng         Press
250424   318.23872     -456.69964      757.35076      665.86565     -23137.542
Loop time of 0.0280149 on 1 procs for 22 steps with 386 atoms

Minimization stats:
  Stopping criterion = linesearch alpha is zero
  Energy initial, next-to-last, final =
  Force two-norm initial, final = 225.89165 27.398228
  Force max component initial, final = 23.735312 3.7599951
  Final line search alpha, max atom move = 1.5882594e-11 5.9718475e-11
  Iterations, force evaluations = 22 101

# Obtain new stress tensor

variable tmp equal pe
variable e1 equal 168.40051352514
variable tmp equal press
variable p1 equal -9600.43730880622
variable tmp equal pxx
variable pxx1 equal -4704.25346144088
variable tmp equal pyy
variable pyy1 equal -5242.98976643681
variable tmp equal pzz
variable pzz1 equal -18854.068698541
variable tmp equal pxy
variable pxy1 equal 1394.84027860966
variable tmp equal pxz
variable pxz1 equal -847.141969560073
variable tmp equal pyz
variable pyz1 equal 3808.35436689497

# Compute elastic constant from pressure tensor

variable C1pos equal 41.3257598325828
variable C2pos equal 44.9162939065889
variable C3pos equal 115.642941750374
variable C4pos equal 6.88316251945725
variable C5pos equal -2.64170829951349
variable C6pos equal -3.16207334934523

# Combine positive and negative

variable C13 equal 0.5*(21.8131950119941+41.3257598325828)
variable C23 equal 0.5*(22.7377990685758+44.9162939065889)
variable C33 equal 0.5*(30.79408111027+115.642941750374)
variable C43 equal 0.5*(2.77637241742075+6.88316251945725)
variable C53 equal 0.5*(7.10020063425815+-2.64170829951349)
variable C63 equal 0.5*(4.01443207649003+-3.16207334934523)

# Delete dir to make sure it is not reused

variable dir delete

# uyz Perturbation

variable dir equal 4
include ./input/displace_333U-50C-9-vasp.mod
variable len0 equal 17.5568223672146

# Reset box and simulation parameters

clear
box tilt large

The 'box' command has been removed and will be ignored

read_restart restart_333U-50C-9-vasp.equil
Reading restart file ...
  restart file = 10 Sep 2025, LAMMPS = 10 Sep 2025
  restoring atom style full from restart
  triclinic box = (-0.12710585 -0.070568049 -0.10333018) to (16.734896 13.517311 17.453492) with tilt (-9.5496696 -1.0844358 0.0034657957)
  restoring pair style lj/cut from restart
  restoring bond style harmonic from restart
  restoring angle style hybrid from restart
  restoring dihedral style harmonic from restart
  386 atoms
  411 bonds
  781 angles
  987 dihedrals
Finding 1-2 1-3 1-4 neighbors ...
     4 = max # of 1-2 neighbors
    10 = max # of 1-3 neighbors
    14 = max # of special neighbors
  read_restart CPU = 0.001 seconds
include ./input/angles_333U-50C-9-vasp.mod
angle_style hybrid fourier cosine/periodic
angle_coeff 1 fourier 157.882480        0.343737        0.374972        0.281246
angle_coeff 2 fourier 221.735285        0.343737        0.374972        0.281246
angle_coeff 3 fourier 83.380072        0.343737        0.374972        0.281246
angle_coeff 4 fourier 58.020602        0.343737        0.374972        0.281246
angle_coeff 5 fourier 114.246973        0.343737        0.374972        0.281246
angle_coeff 6 fourier 32.417871        0.343737        0.374972        0.281246
angle_coeff 7 fourier 90.420412        0.343737        0.374972        0.281246
angle_coeff 8 fourier 75.498766        0.343737        0.374972        0.281246
angle_coeff 9 cosine/periodic 88.853997              -1               3

# Negative deformation

variable delta equal -0.02*17.5568223672146
variable deltaxy equal -0.02*xy
variable deltaxz equal -0.02*xz
variable deltayz equal -0.02*yz
change_box all yz delta -0.351136447344292 remap units box
Changing box ...
  triclinic box = (-0.12710585 -0.070568049 -0.10333018) to (16.734896 13.517311 17.453492) with tilt (-9.5496696 -1.0844358 -0.34767065)

# Relax atoms positions

minimize 0 1e-10 100000 100000
Generated 6 of 6 mixed pair_coeff terms from arithmetic mixing rule
For more information see https://docs.lammps.org/err0027 (src/domain.cpp:1052)
Step          Temp          E_pair         E_mol          TotEng         Press
250424   318.23872     -434.75931      719.56961      650.02484      3567.0443
Loop time of 0.0366057 on 1 procs for 36 steps with 386 atoms

Minimization stats:
  Stopping criterion = linesearch alpha is zero
  Energy initial, next-to-last, final =
  Force two-norm initial, final = 189.02116 14.703993
  Force max component initial, final = 19.834025 2.0242418
  Final line search alpha, max atom move = 4.1431193e-11 8.3866753e-11
  Iterations, force evaluations = 36 127

# Obtain new stress tensor

variable tmp equal pxx
variable pxx1 equal 678.842599250916
variable tmp equal pyy
variable pyy1 equal 509.979499253193
variable tmp equal pzz
variable pzz1 equal -3735.92349804294
variable tmp equal pxy
variable pxy1 equal 1766.37292054277
variable tmp equal pxz
variable pxz1 equal -408.536270614562
variable tmp equal pyz
variable pyz1 equal 11756.6333106299

# Compute elastic constant from pressure tensor

variable C1neg equal -14.4102795291238
variable C2neg equal -16.1514475781388
variable C3neg equal -40.0522157478832
variable C4neg equal 32.8582321992174
variable C5neg equal 4.83473679424104
variable C6neg equal 5.01973655901079

# Reset box and simulation parameters

clear
box tilt large

The 'box' command has been removed and will be ignored

read_restart restart_333U-50C-9-vasp.equil
Reading restart file ...
  restart file = 10 Sep 2025, LAMMPS = 10 Sep 2025
  restoring atom style full from restart
  triclinic box = (-0.12710585 -0.070568049 -0.10333018) to (16.734896 13.517311 17.453492) with tilt (-9.5496696 -1.0844358 0.0034657957)
  restoring pair style lj/cut from restart
  restoring bond style harmonic from restart
  restoring angle style hybrid from restart
  restoring dihedral style harmonic from restart
  386 atoms
  411 bonds
  781 angles
  987 dihedrals
Finding 1-2 1-3 1-4 neighbors ...
     4 = max # of 1-2 neighbors
    10 = max # of 1-3 neighbors
    14 = max # of special neighbors
  read_restart CPU = 0.001 seconds
include ./input/angles_333U-50C-9-vasp.mod
angle_style hybrid fourier cosine/periodic
angle_coeff 1 fourier 157.882480        0.343737        0.374972        0.281246
angle_coeff 2 fourier 221.735285        0.343737        0.374972        0.281246
angle_coeff 3 fourier 83.380072        0.343737        0.374972        0.281246
angle_coeff 4 fourier 58.020602        0.343737        0.374972        0.281246
angle_coeff 5 fourier 114.246973        0.343737        0.374972        0.281246
angle_coeff 6 fourier 32.417871        0.343737        0.374972        0.281246
angle_coeff 7 fourier 90.420412        0.343737        0.374972        0.281246
angle_coeff 8 fourier 75.498766        0.343737        0.374972        0.281246
angle_coeff 9 cosine/periodic 88.853997              -1               3

# Positive deformation

variable delta equal 0.02*17.5568223672146
variable deltaxy equal 0.02*xy
variable deltaxz equal 0.02*xz
variable deltayz equal 0.02*yz
change_box all yz delta 0.351136447344292 remap units box
Changing box ...
  triclinic box = (-0.12710585 -0.070568049 -0.10333018) to (16.734896 13.517311 17.453492) with tilt (-9.5496696 -1.0844358 0.35460224)

# Relax atoms positions

minimize 0 1e-10 100000 100000
Generated 6 of 6 mixed pair_coeff terms from arithmetic mixing rule
For more information see https://docs.lammps.org/err0027 (src/domain.cpp:1052)
Step          Temp          E_pair         E_mol          TotEng         Press
250424   318.23872     -434.74264      709.71466      640.18656      3825.9979
Loop time of 0.0356935 on 1 procs for 34 steps with 386 atoms

Minimization stats:
  Stopping criterion = linesearch alpha is zero
  Energy initial, next-to-last, final =
  Force two-norm initial, final = 189.38084 17.201642
  Force max component initial, final = 18.613741 1.9452108
  Final line search alpha, max atom move = 4.161976e-11 8.0959207e-11
  Iterations, force evaluations = 34 123

# Obtain new stress tensor

variable tmp equal pe
variable e1 equal 143.451623442492
variable tmp equal press
variable p1 equal -1275.41952107766
variable tmp equal pxx
variable pxx1 equal 1251.51101243097
variable tmp equal pyy
variable pyy1 equal 534.958470102976
variable tmp equal pzz
variable pzz1 equal -5612.72804576693
variable tmp equal pxy
variable pxy1 equal 1321.83941570739
variable tmp equal pxz
variable pxz1 equal -96.8626751841175
variable tmp equal pyz
variable pyz1 equal -2039.94194125724

# Compute elastic constant from pressure tensor

variable C1pos equal 11.5469374632235
variable C2pos equal 16.0265527238899
variable C3pos equal 49.4362384865032
variable C4pos equal 36.1246440602183
variable C5pos equal -6.39310477139326
variable C6pos equal -2.79706903483388

# Combine positive and negative

variable C14 equal 0.5*(-14.4102795291238+11.5469374632235)
variable C24 equal 0.5*(-16.1514475781388+16.0265527238899)
variable C34 equal 0.5*(-40.0522157478832+49.4362384865032)
variable C44 equal 0.5*(32.8582321992174+36.1246440602183)
variable C54 equal 0.5*(4.83473679424104+-6.39310477139326)
variable C64 equal 0.5*(5.01973655901079+-2.79706903483388)

# Delete dir to make sure it is not reused

variable dir delete

# uxz Perturbation

variable dir equal 5
include ./input/displace_333U-50C-9-vasp.mod
variable len0 equal 17.5568223672146

# Reset box and simulation parameters

clear
box tilt large

The 'box' command has been removed and will be ignored

read_restart restart_333U-50C-9-vasp.equil
Reading restart file ...
  restart file = 10 Sep 2025, LAMMPS = 10 Sep 2025
  restoring atom style full from restart
  triclinic box = (-0.12710585 -0.070568049 -0.10333018) to (16.734896 13.517311 17.453492) with tilt (-9.5496696 -1.0844358 0.0034657957)
  restoring pair style lj/cut from restart
  restoring bond style harmonic from restart
  restoring angle style hybrid from restart
  restoring dihedral style harmonic from restart
  386 atoms
  411 bonds
  781 angles
  987 dihedrals
Finding 1-2 1-3 1-4 neighbors ...
     4 = max # of 1-2 neighbors
    10 = max # of 1-3 neighbors
    14 = max # of special neighbors
  read_restart CPU = 0.001 seconds
include ./input/angles_333U-50C-9-vasp.mod
angle_style hybrid fourier cosine/periodic
angle_coeff 1 fourier 157.882480        0.343737        0.374972        0.281246
angle_coeff 2 fourier 221.735285        0.343737        0.374972        0.281246
angle_coeff 3 fourier 83.380072        0.343737        0.374972        0.281246
angle_coeff 4 fourier 58.020602        0.343737        0.374972        0.281246
angle_coeff 5 fourier 114.246973        0.343737        0.374972        0.281246
angle_coeff 6 fourier 32.417871        0.343737        0.374972        0.281246
angle_coeff 7 fourier 90.420412        0.343737        0.374972        0.281246
angle_coeff 8 fourier 75.498766        0.343737        0.374972        0.281246
angle_coeff 9 cosine/periodic 88.853997              -1               3

# Negative deformation

variable delta equal -0.02*17.5568223672146
variable deltaxy equal -0.02*xy
variable deltaxz equal -0.02*xz
variable deltayz equal -0.02*yz
change_box all xz delta -0.351136447344292 remap units box
Changing box ...
  triclinic box = (-0.12710585 -0.070568049 -0.10333018) to (16.734896 13.517311 17.453492) with tilt (-9.5496696 -1.4355723 0.0034657957)

# Relax atoms positions

minimize 0 1e-10 100000 100000
Generated 6 of 6 mixed pair_coeff terms from arithmetic mixing rule
For more information see https://docs.lammps.org/err0027 (src/domain.cpp:1052)
Step          Temp          E_pair         E_mol          TotEng         Press
250424   318.23872     -437.41941      715.53403      643.32915      3557.0525
Loop time of 0.0326435 on 1 procs for 37 steps with 386 atoms

Minimization stats:
  Stopping criterion = linesearch alpha is zero
  Energy initial, next-to-last, final =
  Force two-norm initial, final = 191.16304 15.81604
  Force max component initial, final = 17.587265 2.7194993
  Final line search alpha, max atom move = 3.7805878e-11 1.0281306e-10
  Iterations, force evaluations = 37 129

# Obtain new stress tensor

variable tmp equal pxx
variable pxx1 equal 323.50706948953
variable tmp equal pyy
variable pyy1 equal 1141.39761382073
variable tmp equal pzz
variable pzz1 equal -4447.46030086263
variable tmp equal pxy
variable pxy1 equal 1246.31281441485
variable tmp equal pxz
variable pxz1 equal 5072.42449021804
variable tmp equal pyz
variable pyz1 equal 4559.92995535299

# Compute elastic constant from pressure tensor

variable C1neg equal -16.1869571779307
variable C2neg equal -12.9943570053012
variable C3neg equal -43.6098997619817
variable C4neg equal -3.12528457716715
variable C5neg equal 32.2395405984041
variable C6neg equal 2.41943602837119

# Reset box and simulation parameters

clear
box tilt large

The 'box' command has been removed and will be ignored

read_restart restart_333U-50C-9-vasp.equil
Reading restart file ...
  restart file = 10 Sep 2025, LAMMPS = 10 Sep 2025
  restoring atom style full from restart
  triclinic box = (-0.12710585 -0.070568049 -0.10333018) to (16.734896 13.517311 17.453492) with tilt (-9.5496696 -1.0844358 0.0034657957)
  restoring pair style lj/cut from restart
  restoring bond style harmonic from restart
  restoring angle style hybrid from restart
  restoring dihedral style harmonic from restart
  386 atoms
  411 bonds
  781 angles
  987 dihedrals
Finding 1-2 1-3 1-4 neighbors ...
     4 = max # of 1-2 neighbors
    10 = max # of 1-3 neighbors
    14 = max # of special neighbors
  read_restart CPU = 0.001 seconds
include ./input/angles_333U-50C-9-vasp.mod
angle_style hybrid fourier cosine/periodic
angle_coeff 1 fourier 157.882480        0.343737        0.374972        0.281246
angle_coeff 2 fourier 221.735285        0.343737        0.374972        0.281246
angle_coeff 3 fourier 83.380072        0.343737        0.374972        0.281246
angle_coeff 4 fourier 58.020602        0.343737        0.374972        0.281246
angle_coeff 5 fourier 114.246973        0.343737        0.374972        0.281246
angle_coeff 6 fourier 32.417871        0.343737        0.374972        0.281246
angle_coeff 7 fourier 90.420412        0.343737        0.374972        0.281246
angle_coeff 8 fourier 75.498766        0.343737        0.374972        0.281246
angle_coeff 9 cosine/periodic 88.853997              -1               3

# Positive deformation

variable delta equal 0.02*17.5568223672146
variable deltaxy equal 0.02*xy
variable deltaxz equal 0.02*xz
variable deltayz equal 0.02*yz
change_box all xz delta 0.351136447344292 remap units box
Changing box ...
  triclinic box = (-0.12710585 -0.070568049 -0.10333018) to (16.734896 13.517311 17.453492) with tilt (-9.5496696 -0.73329939 0.0034657957)

# Relax atoms positions

minimize 0 1e-10 100000 100000
Generated 6 of 6 mixed pair_coeff terms from arithmetic mixing rule
For more information see https://docs.lammps.org/err0027 (src/domain.cpp:1052)
Step          Temp          E_pair         E_mol          TotEng         Press
250424   318.23872     -433.20735      713.85787      645.86505      3795.9744
Loop time of 0.0346468 on 1 procs for 36 steps with 386 atoms

Minimization stats:
  Stopping criterion = linesearch alpha is zero
  Energy initial, next-to-last, final =
  Force two-norm initial, final = 191.43868 14.523022
  Force max component initial, final = 19.666501 1.6718452
  Final line search alpha, max atom move = 3.0019235e-11 5.0187513e-11
  Iterations, force evaluations = 36 128

# Obtain new stress tensor

variable tmp equal pe
variable e1 equal 146.466828947644
variable tmp equal press
variable p1 equal -1092.54575754942
variable tmp equal pxx
variable pxx1 equal 1414.48438911761
variable tmp equal pyy
variable pyy1 equal 198.958808175246
variable tmp equal pzz
variable pzz1 equal -4891.08046994113
variable tmp equal pxy
variable pxy1 equal 1785.98695375457
variable tmp equal pxz
variable pxz1 equal -5725.09960808879
variable tmp equal pyz
variable pyz1 equal 4841.92203096217

# Compute elastic constant from pressure tensor

variable C1pos equal 10.7320705797903
variable C2pos equal 17.7065510335286
variable C3pos equal 45.8280006073742
variable C4pos equal 1.71532419912125
variable C5pos equal 21.7480798931301
variable C6pos equal -5.11780672506979

# Combine positive and negative

variable C15 equal 0.5*(-16.1869571779307+10.7320705797903)
variable C25 equal 0.5*(-12.9943570053012+17.7065510335286)
variable C35 equal 0.5*(-43.6098997619817+45.8280006073742)
variable C45 equal 0.5*(-3.12528457716715+1.71532419912125)
variable C55 equal 0.5*(32.2395405984041+21.7480798931301)
variable C65 equal 0.5*(2.41943602837119+-5.11780672506979)

# Delete dir to make sure it is not reused

variable dir delete

# uxy Perturbation

variable dir equal 6
include ./input/displace_333U-50C-9-vasp.mod
variable len0 equal 13.5878790988403

# Reset box and simulation parameters

clear
box tilt large

The 'box' command has been removed and will be ignored

read_restart restart_333U-50C-9-vasp.equil
Reading restart file ...
  restart file = 10 Sep 2025, LAMMPS = 10 Sep 2025
  restoring atom style full from restart
  triclinic box = (-0.12710585 -0.070568049 -0.10333018) to (16.734896 13.517311 17.453492) with tilt (-9.5496696 -1.0844358 0.0034657957)
  restoring pair style lj/cut from restart
  restoring bond style harmonic from restart
  restoring angle style hybrid from restart
  restoring dihedral style harmonic from restart
  386 atoms
  411 bonds
  781 angles
  987 dihedrals
Finding 1-2 1-3 1-4 neighbors ...
     4 = max # of 1-2 neighbors
    10 = max # of 1-3 neighbors
    14 = max # of special neighbors
  read_restart CPU = 0.001 seconds
include ./input/angles_333U-50C-9-vasp.mod
angle_style hybrid fourier cosine/periodic
angle_coeff 1 fourier 157.882480        0.343737        0.374972        0.281246
angle_coeff 2 fourier 221.735285        0.343737        0.374972        0.281246
angle_coeff 3 fourier 83.380072        0.343737        0.374972        0.281246
angle_coeff 4 fourier 58.020602        0.343737        0.374972        0.281246
angle_coeff 5 fourier 114.246973        0.343737        0.374972        0.281246
angle_coeff 6 fourier 32.417871        0.343737        0.374972        0.281246
angle_coeff 7 fourier 90.420412        0.343737        0.374972        0.281246
angle_coeff 8 fourier 75.498766        0.343737        0.374972        0.281246
angle_coeff 9 cosine/periodic 88.853997              -1               3

# Negative deformation

variable delta equal -0.02*13.5878790988403
variable deltaxy equal -0.02*xy
variable deltaxz equal -0.02*xz
variable deltayz equal -0.02*yz
change_box all xy delta -0.271757581976806 remap units box
Changing box ...
  triclinic box = (-0.12710585 -0.070568049 -0.10333018) to (16.734896 13.517311 17.453492) with tilt (-9.8214272 -1.0844358 0.0034657957)

# Relax atoms positions

minimize 0 1e-10 100000 100000
Generated 6 of 6 mixed pair_coeff terms from arithmetic mixing rule
For more information see https://docs.lammps.org/err0027 (src/domain.cpp:1052)
Step          Temp          E_pair         E_mol          TotEng         Press
250424   318.23872     -436.85276      716.58143      644.9432       4027.9338
Loop time of 0.0281825 on 1 procs for 24 steps with 386 atoms

Minimization stats:
  Stopping criterion = linesearch alpha is zero
  Energy initial, next-to-last, final =
  Force two-norm initial, final = 190.3864 27.356772
  Force max component initial, final = 19.153711 3.7998442
  Final line search alpha, max atom move = 1.3341514e-11 5.0695674e-11
  Iterations, force evaluations = 24 105

# Obtain new stress tensor

variable tmp equal pxx
variable pxx1 equal 1826.05498543823
variable tmp equal pyy
variable pyy1 equal 3618.59372130355
variable tmp equal pzz
variable pzz1 equal -4415.40894125604
variable tmp equal pxy
variable pxy1 equal 7175.97550667005
variable tmp equal pxz
variable pxz1 equal -1162.13220617594
variable tmp equal pyz
variable pyz1 equal 4643.37428418565

# Compute elastic constant from pressure tensor

variable C1neg equal -8.6742175981872
variable C2neg equal -0.608376467887051
variable C3neg equal -43.4496429639487
variable C4neg equal -2.70806293300385
variable C5neg equal 1.06675711643415
variable C6neg equal 32.0677494896472

# Reset box and simulation parameters

clear
box tilt large

The 'box' command has been removed and will be ignored

read_restart restart_333U-50C-9-vasp.equil
Reading restart file ...
  restart file = 10 Sep 2025, LAMMPS = 10 Sep 2025
  restoring atom style full from restart
  triclinic box = (-0.12710585 -0.070568049 -0.10333018) to (16.734896 13.517311 17.453492) with tilt (-9.5496696 -1.0844358 0.0034657957)
  restoring pair style lj/cut from restart
  restoring bond style harmonic from restart
  restoring angle style hybrid from restart
  restoring dihedral style harmonic from restart
  386 atoms
  411 bonds
  781 angles
  987 dihedrals
Finding 1-2 1-3 1-4 neighbors ...
     4 = max # of 1-2 neighbors
    10 = max # of 1-3 neighbors
    14 = max # of special neighbors
  read_restart CPU = 0.001 seconds
include ./input/angles_333U-50C-9-vasp.mod
angle_style hybrid fourier cosine/periodic
angle_coeff 1 fourier 157.882480        0.343737        0.374972        0.281246
angle_coeff 2 fourier 221.735285        0.343737        0.374972        0.281246
angle_coeff 3 fourier 83.380072        0.343737        0.374972        0.281246
angle_coeff 4 fourier 58.020602        0.343737        0.374972        0.281246
angle_coeff 5 fourier 114.246973        0.343737        0.374972        0.281246
angle_coeff 6 fourier 32.417871        0.343737        0.374972        0.281246
angle_coeff 7 fourier 90.420412        0.343737        0.374972        0.281246
angle_coeff 8 fourier 75.498766        0.343737        0.374972        0.281246
angle_coeff 9 cosine/periodic 88.853997              -1               3

# Positive deformation

variable delta equal 0.02*13.5878790988403
variable deltaxy equal 0.02*xy
variable deltaxz equal 0.02*xz
variable deltayz equal 0.02*yz
change_box all xy delta 0.271757581976806 remap units box
Changing box ...
  triclinic box = (-0.12710585 -0.070568049 -0.10333018) to (16.734896 13.517311 17.453492) with tilt (-9.277912 -1.0844358 0.0034657957)

# Relax atoms positions

minimize 0 1e-10 100000 100000
Generated 6 of 6 mixed pair_coeff terms from arithmetic mixing rule
For more information see https://docs.lammps.org/err0027 (src/domain.cpp:1052)
Step          Temp          E_pair         E_mol          TotEng         Press
250424   318.23872     -433.46088      711.53418      643.28783      3346.0813
Loop time of 0.0298911 on 1 procs for 25 steps with 386 atoms

Minimization stats:
  Stopping criterion = linesearch alpha is zero
  Energy initial, next-to-last, final =
  Force two-norm initial, final = 190.88527 24.937086
  Force max component initial, final = 17.263232 3.4972646
  Final line search alpha, max atom move = 1.3537208e-11 4.7343198e-11
  Iterations, force evaluations = 25 107

# Obtain new stress tensor

variable tmp equal pe
variable e1 equal 148.821591670872
variable tmp equal press
variable p1 equal -1868.00916999271
variable tmp equal pxx
variable pxx1 equal -210.754744030056
variable tmp equal pyy
variable pyy1 equal -706.268229690229
variable tmp equal pzz
variable pzz1 equal -4687.00453625787
variable tmp equal pxy
variable pxy1 equal -4585.47138862126
variable tmp equal pxz
variable pxz1 equal -695.908888766267
variable tmp equal pyz
variable pyz1 equal 4252.06731511267

# Compute elastic constant from pressure tensor

variable C1pos equal 18.8582662455286
variable C2pos equal 22.2326862228559
variable C3pos equal 44.8076209389579
variable C4pos equal 4.66459777836875
variable C5pos equal -3.39787370348252
variable C6pos equal 26.7394849868094

# Combine positive and negative

variable C16 equal 0.5*(-8.6742175981872+18.8582662455286)
variable C26 equal 0.5*(-0.608376467887051+22.2326862228559)
variable C36 equal 0.5*(-43.4496429639487+44.8076209389579)
variable C46 equal 0.5*(-2.70806293300385+4.66459777836875)
variable C56 equal 0.5*(1.06675711643415+-3.39787370348252)
variable C66 equal 0.5*(32.0677494896472+26.7394849868094)

# Delete dir to make sure it is not reused

variable dir delete

# Output final values

variable C11all equal 65.1768861327618
variable C22all equal 74.6226707343555
variable C33all equal 73.218511430322

variable C12all equal 0.5*(33.7596095605426+33.8462983951437)
variable C13all equal 0.5*(31.5694774222885+31.4936132270292)
variable C23all equal 0.5*(33.8270464875824+35.1084374899404)

variable C44all equal 34.4914381297178
variable C55all equal 26.9938102457671
variable C66all equal 29.4036172382283

variable C14all equal 0.5*(-1.43167103295015+-1.74707052300043)
variable C15all equal 0.5*(-2.7274432990702+-3.42681293719733)
variable C16all equal 0.5*(5.0920243236707+5.82626049842843)

variable C24all equal 0.5*(-0.0624474271244502+0.836815405715476)
variable C25all equal 0.5*(2.3560970141137+3.26634027028619)
variable C26all equal 0.5*(10.8121548774844+10.8985816691951)

variable C34all equal 0.5*(4.69201136931+4.829767468439)
variable C35all equal 0.5*(1.10905042269625+2.22924616737233)
variable C36all equal 0.5*(0.678988987504603+0.4261793635724)

variable C45all equal 0.5*(-0.70498018902295+-0.77918398857611)
variable C46all equal 0.5*(0.97826742268245+1.11133376208845)
variable C56all equal 0.5*(-1.16555829352418+-1.3491853483493)

# Average moduli for cubic crystals

variable C11cubic equal (65.1768861327618+74.6226707343555+73.218511430322)/3.0
variable C12cubic equal (33.8029539778431+31.5315453246589+34.4677419887614)/3.0
variable C44cubic equal (34.4914381297178+26.9938102457671+29.4036172382283)/3.0

variable bulkmodulus equal (71.0060227658131+2*33.2674137637545)/3.0
variable shearmodulus1 equal 30.2962885379044
variable shearmodulus2 equal (71.0060227658131-33.2674137637545)/2.0
variable poissonratio equal 1.0/(1.0+71.0060227658131/33.2674137637545)

Elastic Constant 1 1 = 65.1768861327618
Elastic Constant 2 2 = 74.6226707343555
Elastic Constant 3 3 = 73.218511430322

Elastic Constant 1 2 = 33.8029539778431
Elastic Constant 1 3 = 31.5315453246589
Elastic Constant 2 3 = 34.4677419887614

Elastic Constant 4 4 = 34.4914381297178
Elastic Constant 5 5 = 26.9938102457671
Elastic Constant 6 6 = 29.4036172382283

Elastic Constant 1 4 = -1.58937077797529
Elastic Constant 1 5 = -3.07712811813377
Elastic Constant 1 6 = 5.45914241104956

Elastic Constant 2 4 = 0.387183989295513
Elastic Constant 2 5 = 2.81121864219994
Elastic Constant 2 6 = 10.8553682733397

Elastic Constant 3 4 = 4.7608894188745
Elastic Constant 3 5 = 1.66914829503429
Elastic Constant 3 6 = 0.552584175538501

Elastic Constant 4 5 = -0.74208208879953
Elastic Constant 4 6 = 1.04480059238545
Elastic Constant 5 6 = -1.25737182093674

Bulk Modulus = 45.846950097774 GPa
Shear Modulus 1 = 30.2962885379044 GPa
Shear Modulus 2 = 18.8693045010293 GPa
Poisson Ratio = 0.319040158941355

variable rho equal density
density (g/cm^3) = 1.68404518341314
