units           real
atom_style      full
boundary        p p p

pair_style      lj/cut 5.000
bond_style      harmonic
angle_style     hybrid fourier cosine/periodic
dihedral_style  harmonic

pair_modify     tail yes mix arithmetic
dielectric      1.0
special_bonds   lj/coul 0.0 0.0 1.0
box tilt        large

The 'box' command has been removed and will be ignored

read_data       ./dat/data.333-HD-100C-14-VASP
Reading data file ...
  triclinic box = (0 0 0) to (15.546207 13.465953 17.246463) with tilt (-7.583966 0.177804 0.437127)
  reading atoms ...
  366 atoms
  scanning bonds ...
  scanning angles ...
  scanning dihedrals ...
  triclinic box = (0 0 0) to (15.546207 13.465953 17.246463) with tilt (-7.583966 0.177804 0.437127)
  reading bonds ...
  408 bonds
  reading angles ...
  792 angles
  reading dihedrals ...
  1080 dihedrals
Finding 1-2 1-3 1-4 neighbors ...
     4 = max # of 1-2 neighbors
    10 = max # of 1-3 neighbors
    14 = max # of special neighbors

#### Atom Groupings ####
group           fram     id   1:366
366 atoms in group fram
#### END Atom Groupings ####

compute am all property/atom mass
dump        atom_pos all extxyz 100 ./output/333-HD-100C-14-VASP.lammpstrj
dump_modify atom_pos element Si C O H mass yes
thermo          1000
thermo_style    custom step temp pe ke etotal press vol density

variable up equal 2e-2
variable cfac equal 1.0e-4
variable cunits string GPa

# Define minimization parameters
variable etol equal 0.0
variable ftol equal 1.0e-10
variable maxiter equal 100000
variable maxeval equal 100000
variable dmax equal 1.0e-2

variable temp equal 300.0
variable thermal_damp index 100.0
variable pressure_damp index 500.0

fix relax all box/relax aniso 0.0 vmax 0.001
unfix relax
minimize 0 1e-10 100000 100000
Generated 6 of 6 mixed pair_coeff terms from arithmetic mixing rule
For more information see https://docs.lammps.org/err0027 (src/domain.cpp:1052)
Step          Temp          PotEng         KinEng         TotEng         Press          Volume        Density
0   0              2237.984       0              2237.984       151542.32      3610.452       1.9791675
Loop time of 0.0486797 on 1 procs for 55 steps with 366 atoms

Minimization stats:
  Stopping criterion = linesearch alpha is zero
  Energy initial, next-to-last, final =
  Force two-norm initial, final = 935.43302 94.331886
  Force max component initial, final = 96.315896 64.236056
  Final line search alpha, max atom move = 7.8816714e-13 5.0628748e-11
  Iterations, force evaluations = 55 219

# Generating the full routine as described in the paper for UFF
fix nvt_relax   all nvt temp 300 300 100.0
run 100000      # 100 picoseconds
Generated 6 of 6 mixed pair_coeff terms from arithmetic mixing rule
For more information see https://docs.lammps.org/err0027 (src/domain.cpp:1052)
Step          Temp          PotEng         KinEng         TotEng         Press          Volume        Density
55   0              581.18487      0              581.18487      13246.805      3610.452       1.9791675
Averages over the last 51 of 102 rows, steps 51000 to 100055:
Temp PotEng KinEng TotEng Press Volume Density
296.295 828.056 322.368 1150.42 12271.6 3610.45 1.97917
Loop time of 25.1761 on 1 procs for 100000 steps with 366 atoms

unfix           nvt_relax

fix npt_relax   all npt temp 300 300 100.0 iso 0 0 500.0
run 100000      # 100 picoseconds
Generated 6 of 6 mixed pair_coeff terms from arithmetic mixing rule
For more information see https://docs.lammps.org/err0027 (src/domain.cpp:1052)
Step          Temp          PotEng         KinEng         TotEng         Press          Volume        Density
100055   291.0342       837.34401      316.64395      1153.988       14755.045      3610.452       1.9791675
Averages over the last 51 of 102 rows, steps 151000 to 200055:
Temp PotEng KinEng TotEng Press Volume Density
297.066 803.873 323.206 1127.08 850.057 3675.52 1.94416
Loop time of 28.7975 on 1 procs for 100000 steps with 366 atoms

unfix           npt_relax

# run 100000      # 100 picoseconds
# unfix           nvt_heat
#
# run 100000      # 100 picoseconds
# unfix           npt_heat
#
# run 700000      # 700 picoseconds
# unfix           cooling_npt
#
# run 100000      # 100 picoseconds
# unfix           npt_final

# density computation
variable rho equal density
fix integrate  all npt temp 300 300 100.0 iso 0 0 500.0
fix rho50k all ave/time 10 5000 50000 v_rho mode scalar ave one
run 50000
Generated 6 of 6 mixed pair_coeff terms from arithmetic mixing rule
For more information see https://docs.lammps.org/err0027 (src/domain.cpp:1052)
Step          Temp          PotEng         KinEng         TotEng         Press          Volume        Density
200055   283.98455      820.53063      308.97396      1129.5046      3448.8485      3668.9545      1.9476092
Averages over the last 26 of 52 rows, steps 226000 to 250055:
Temp PotEng KinEng TotEng Press Volume Density
296.514 811.959 322.606 1134.57 741.837 3672.4 1.94581
Loop time of 13.677 on 1 procs for 50000 steps with 366 atoms

unfix integrate
unfix rho50k

# Compute initial state
fix 3 all box/relax  aniso 0.0
minimize 0 1e-10 100000 100000
Generated 6 of 6 mixed pair_coeff terms from arithmetic mixing rule
 (src/min.cpp:222)
For more information see https://docs.lammps.org/err0027 (src/domain.cpp:1052)
Step          Temp          PotEng         KinEng         TotEng         Press          Volume        Density
250055   285.89117      786.84385      311.04835      1097.8922     -1742.6107      3677.1924      1.943246
Loop time of 0.0637381 on 1 procs for 236 steps with 366 atoms

Minimization stats:
  Stopping criterion = linesearch alpha is zero
  Energy initial, next-to-last, final =
  Force two-norm initial, final = 890.39167 137.1086
  Force max component initial, final = 369.59608 24.250669
  Final line search alpha, max atom move = 4.9329516e-13 1.1962737e-11
  Iterations, force evaluations = 236 259

variable tmp equal pxx
variable pxx0 equal 3494.16643022391
variable tmp equal pyy
variable pyy0 equal 3378.05929242089
variable tmp equal pzz
variable pzz0 equal 3490.02353203983
variable tmp equal pyz
variable pyz0 equal 2354.83377035804
variable tmp equal pxz
variable pxz0 equal 6551.9749383822
variable tmp equal pxy
variable pxy0 equal -618.662435591372

variable tmp equal lx
variable lx0 equal 15.6587173584458
variable tmp equal ly
variable ly0 equal 13.5406158532753
variable tmp equal lz
variable lz0 equal 17.3137548641745

# These formulas define the derivatives w.r.t. strain components
# Constants uses $, variables use v_
variable d1 equal -(v_pxx1-3494.16643022391)/(v_delta/v_len0)*0.0001
variable d2 equal -(v_pyy1-3378.05929242089)/(v_delta/v_len0)*0.0001
variable d3 equal -(v_pzz1-3490.02353203983)/(v_delta/v_len0)*0.0001
variable d4 equal -(v_pyz1-2354.83377035804)/(v_delta/v_len0)*0.0001
variable d5 equal -(v_pxz1-6551.9749383822)/(v_delta/v_len0)*0.0001
variable d6 equal -(v_pxy1--618.662435591372)/(v_delta/v_len0)*0.0001

# Write restart
unfix 3
write_restart restart_333-HD-100C-14-VASP.equil
System init for write_restart ...
Generated 6 of 6 mixed pair_coeff terms from arithmetic mixing rule

# uxx Perturbation

variable dir equal 1
include ./input/displace_333-HD-100C-14-VASP.mod
variable len0 equal 15.6587173584458

# Reset box and simulation parameters

clear
box tilt large

The 'box' command has been removed and will be ignored

read_restart restart_333-HD-100C-14-VASP.equil
Reading restart file ...
  restart file = 10 Sep 2025, LAMMPS = 10 Sep 2025
  restoring atom style full from restart
  triclinic box = (-0.056255179 -0.037331427 -0.033645932) to (15.602462 13.503284 17.280109) with tilt (-7.6260158 0.17849775 0.43883257)
  restoring pair style lj/cut from restart
  restoring bond style harmonic from restart
  restoring angle style hybrid from restart
  restoring dihedral style harmonic from restart
  366 atoms
  408 bonds
  792 angles
  1080 dihedrals
Finding 1-2 1-3 1-4 neighbors ...
     4 = max # of 1-2 neighbors
    10 = max # of 1-3 neighbors
    14 = max # of special neighbors
  read_restart CPU = 0.002 seconds
include ./input/angles_333-HD-100C-14-VASP.mod
angle_style hybrid fourier cosine/periodic
angle_coeff 1 fourier 157.882480        0.343737        0.374972        0.281246
angle_coeff 2 fourier 221.735285        0.343737        0.374972        0.281246
angle_coeff 3 fourier 114.246973        0.343737        0.374972        0.281246
angle_coeff 4 fourier 90.420412        0.343737        0.374972        0.281246
angle_coeff 5 fourier 75.498766        0.343737        0.374972        0.281246
angle_coeff 6 cosine/periodic 88.853997              -1               3

# Negative deformation

variable delta equal -0.02*15.6587173584458
variable deltaxy equal -0.02*xy
variable deltaxz equal -0.02*xz
variable deltayz equal -0.02*yz
change_box all x delta 0 -0.313174347168916 xy delta 0.1525203158667 xz delta -0.00356995503352763 remap units box
Changing box ...
  triclinic box = (-0.056255179 -0.037331427 -0.033645932) to (15.289288 13.503284 17.280109) with tilt (-7.6260158 0.17849775 0.43883257)
  triclinic box = (-0.056255179 -0.037331427 -0.033645932) to (15.289288 13.503284 17.280109) with tilt (-7.4734955 0.17849775 0.43883257)
  triclinic box = (-0.056255179 -0.037331427 -0.033645932) to (15.289288 13.503284 17.280109) with tilt (-7.4734955 0.1749278 0.43883257)

# Relax atoms positions

minimize 0 1e-10 100000 100000
Generated 6 of 6 mixed pair_coeff terms from arithmetic mixing rule
For more information see https://docs.lammps.org/err0027 (src/domain.cpp:1052)
Step          Temp          E_pair         E_mol          TotEng         Press
250291   285.89117     -390.73693      982.20017      902.5116       35667.879
Loop time of 0.0236346 on 1 procs for 26 steps with 366 atoms

Minimization stats:
  Stopping criterion = linesearch alpha is zero
  Energy initial, next-to-last, final =
  Force two-norm initial, final = 211.05603 16.015786
  Force max component initial, final = 23.816262 2.3801148
  Final line search alpha, max atom move = 2.7340275e-11 6.5072994e-11
  Iterations, force evaluations = 26 109

# Obtain new stress tensor

variable tmp equal pxx
variable pxx1 equal 31166.8613782956
variable tmp equal pyy
variable pyy1 equal 12353.8950672908
variable tmp equal pzz
variable pzz1 equal 7326.69628013336
variable tmp equal pxy
variable pxy1 equal -937.176029967703
variable tmp equal pxz
variable pxz1 equal 7120.02875182394
variable tmp equal pyz
variable pyz1 equal 3439.04976675527

# Compute elastic constant from pressure tensor

variable C1neg equal 138.363474740358
variable C2neg equal 44.8791788743495
variable C3neg equal 19.1833637404677
variable C4neg equal 5.42107998198615
variable C5neg equal 2.8402690672087
variable C6neg equal -1.59256797188166

# Reset box and simulation parameters

clear
box tilt large

The 'box' command has been removed and will be ignored

read_restart restart_333-HD-100C-14-VASP.equil
Reading restart file ...
  restart file = 10 Sep 2025, LAMMPS = 10 Sep 2025
  restoring atom style full from restart
  triclinic box = (-0.056255179 -0.037331427 -0.033645932) to (15.602462 13.503284 17.280109) with tilt (-7.6260158 0.17849775 0.43883257)
  restoring pair style lj/cut from restart
  restoring bond style harmonic from restart
  restoring angle style hybrid from restart
  restoring dihedral style harmonic from restart
  366 atoms
  408 bonds
  792 angles
  1080 dihedrals
Finding 1-2 1-3 1-4 neighbors ...
     4 = max # of 1-2 neighbors
    10 = max # of 1-3 neighbors
    14 = max # of special neighbors
  read_restart CPU = 0.002 seconds
include ./input/angles_333-HD-100C-14-VASP.mod
angle_style hybrid fourier cosine/periodic
angle_coeff 1 fourier 157.882480        0.343737        0.374972        0.281246
angle_coeff 2 fourier 221.735285        0.343737        0.374972        0.281246
angle_coeff 3 fourier 114.246973        0.343737        0.374972        0.281246
angle_coeff 4 fourier 90.420412        0.343737        0.374972        0.281246
angle_coeff 5 fourier 75.498766        0.343737        0.374972        0.281246
angle_coeff 6 cosine/periodic 88.853997              -1               3

# Positive deformation

variable delta equal 0.02*15.6587173584458
variable deltaxy equal 0.02*xy
variable deltaxz equal 0.02*xz
variable deltayz equal 0.02*yz
change_box all x delta 0 0.313174347168916 xy delta -0.1525203158667 xz delta 0.00356995503352763 remap units box
Changing box ...
  triclinic box = (-0.056255179 -0.037331427 -0.033645932) to (15.915637 13.503284 17.280109) with tilt (-7.6260158 0.17849775 0.43883257)
  triclinic box = (-0.056255179 -0.037331427 -0.033645932) to (15.915637 13.503284 17.280109) with tilt (-7.7785361 0.17849775 0.43883257)
  triclinic box = (-0.056255179 -0.037331427 -0.033645932) to (15.915637 13.503284 17.280109) with tilt (-7.7785361 0.18206771 0.43883257)

# Relax atoms positions

minimize 0 1e-10 100000 100000
Generated 6 of 6 mixed pair_coeff terms from arithmetic mixing rule
For more information see https://docs.lammps.org/err0027 (src/domain.cpp:1052)
Step          Temp          E_pair         E_mol          TotEng         Press
250291   285.89117     -454.70929      1045.9834      902.3225      -27435.292
Loop time of 0.0309773 on 1 procs for 47 steps with 366 atoms

Minimization stats:
  Stopping criterion = linesearch alpha is zero
  Energy initial, next-to-last, final =
  Force two-norm initial, final = 212.37518 9.3287152
  Force max component initial, final = 25.636439 1.604746
  Final line search alpha, max atom move = 1.0631562e-10 1.7060956e-10
  Iterations, force evaluations = 47 147

# Obtain new stress tensor

variable tmp equal pe
variable e1 equal 491.494094490243
variable tmp equal press
variable p1 equal -14810.6069716186
variable tmp equal pxx
variable pxx1 equal -23665.4427635543
variable tmp equal pyy
variable pyy1 equal -7447.48641600309
variable tmp equal pzz
variable pzz1 equal -13318.8917352983
variable tmp equal pxy
variable pxy1 equal -479.347741603849
variable tmp equal pxz
variable pxz1 equal 4498.38377732752
variable tmp equal pyz
variable pyz1 equal 3422.13250220833

# Compute elastic constant from pressure tensor

variable C1pos equal 135.798045968891
variable C2pos equal 54.1277285421199
variable C3pos equal 84.0445763366907
variable C4pos equal -5.33649365925145
variable C5pos equal 10.2679558052734
variable C6pos equal -0.696573469937615

# Combine positive and negative

variable C11 equal 0.5*(138.363474740358+135.798045968891)
variable C21 equal 0.5*(44.8791788743495+54.1277285421199)
variable C31 equal 0.5*(19.1833637404677+84.0445763366907)
variable C41 equal 0.5*(5.42107998198615+-5.33649365925145)
variable C51 equal 0.5*(2.8402690672087+10.2679558052734)
variable C61 equal 0.5*(-1.59256797188166+-0.696573469937615)

# Delete dir to make sure it is not reused

variable dir delete

# uyy Perturbation

variable dir equal 2
include ./input/displace_333-HD-100C-14-VASP.mod
variable len0 equal 13.5406158532753

# Reset box and simulation parameters

clear
box tilt large

The 'box' command has been removed and will be ignored

read_restart restart_333-HD-100C-14-VASP.equil
Reading restart file ...
  restart file = 10 Sep 2025, LAMMPS = 10 Sep 2025
  restoring atom style full from restart
  triclinic box = (-0.056255179 -0.037331427 -0.033645932) to (15.602462 13.503284 17.280109) with tilt (-7.6260158 0.17849775 0.43883257)
  restoring pair style lj/cut from restart
  restoring bond style harmonic from restart
  restoring angle style hybrid from restart
  restoring dihedral style harmonic from restart
  366 atoms
  408 bonds
  792 angles
  1080 dihedrals
Finding 1-2 1-3 1-4 neighbors ...
     4 = max # of 1-2 neighbors
    10 = max # of 1-3 neighbors
    14 = max # of special neighbors
  read_restart CPU = 0.001 seconds
include ./input/angles_333-HD-100C-14-VASP.mod
angle_style hybrid fourier cosine/periodic
angle_coeff 1 fourier 157.882480        0.343737        0.374972        0.281246
angle_coeff 2 fourier 221.735285        0.343737        0.374972        0.281246
angle_coeff 3 fourier 114.246973        0.343737        0.374972        0.281246
angle_coeff 4 fourier 90.420412        0.343737        0.374972        0.281246
angle_coeff 5 fourier 75.498766        0.343737        0.374972        0.281246
angle_coeff 6 cosine/periodic 88.853997              -1               3

# Negative deformation

variable delta equal -0.02*13.5406158532753
variable deltaxy equal -0.02*xy
variable deltaxz equal -0.02*xz
variable deltayz equal -0.02*yz
change_box all y delta 0 -0.270812317065506 yz delta -0.00877665144732872 remap units box
Changing box ...
  triclinic box = (-0.056255179 -0.037331427 -0.033645932) to (15.602462 13.232472 17.280109) with tilt (-7.6260158 0.17849775 0.43883257)
  triclinic box = (-0.056255179 -0.037331427 -0.033645932) to (15.602462 13.232472 17.280109) with tilt (-7.6260158 0.17849775 0.43005592)

# Relax atoms positions

minimize 0 1e-10 100000 100000
Generated 6 of 6 mixed pair_coeff terms from arithmetic mixing rule
For more information see https://docs.lammps.org/err0027 (src/domain.cpp:1052)
Step          Temp          E_pair         E_mol          TotEng         Press
250291   285.89117     -394.74912      985.99907      902.2983       36061.353
Loop time of 0.0236716 on 1 procs for 25 steps with 366 atoms

Minimization stats:
  Stopping criterion = linesearch alpha is zero
  Energy initial, next-to-last, final =
  Force two-norm initial, final = 224.2565 18.026378
  Force max component initial, final = 25.093386 2.4110765
  Final line search alpha, max atom move = 2.968695e-11 7.1577506e-11
  Iterations, force evaluations = 25 107

# Obtain new stress tensor

variable tmp equal pxx
variable pxx1 equal 12463.5226079637
variable tmp equal pyy
variable pyy1 equal 31425.0863614494
variable tmp equal pzz
variable pzz1 equal 5774.38928642882
variable tmp equal pxy
variable pxy1 equal -1022.4439498095
variable tmp equal pxz
variable pxz1 equal 6553.3042862965
variable tmp equal pyz
variable pyz1 equal 2531.33321527654

# Compute elastic constant from pressure tensor

variable C1neg equal 44.846780888699
variable C2neg equal 140.235135345143
variable C3neg equal 11.421828771945
variable C4neg equal 0.8824972245925
variable C5neg equal 0.00664673957150171
variable C6neg equal -2.01890757109064

# Reset box and simulation parameters

clear
box tilt large

The 'box' command has been removed and will be ignored

read_restart restart_333-HD-100C-14-VASP.equil
Reading restart file ...
  restart file = 10 Sep 2025, LAMMPS = 10 Sep 2025
  restoring atom style full from restart
  triclinic box = (-0.056255179 -0.037331427 -0.033645932) to (15.602462 13.503284 17.280109) with tilt (-7.6260158 0.17849775 0.43883257)
  restoring pair style lj/cut from restart
  restoring bond style harmonic from restart
  restoring angle style hybrid from restart
  restoring dihedral style harmonic from restart
  366 atoms
  408 bonds
  792 angles
  1080 dihedrals
Finding 1-2 1-3 1-4 neighbors ...
     4 = max # of 1-2 neighbors
    10 = max # of 1-3 neighbors
    14 = max # of special neighbors
  read_restart CPU = 0.001 seconds
include ./input/angles_333-HD-100C-14-VASP.mod
angle_style hybrid fourier cosine/periodic
angle_coeff 1 fourier 157.882480        0.343737        0.374972        0.281246
angle_coeff 2 fourier 221.735285        0.343737        0.374972        0.281246
angle_coeff 3 fourier 114.246973        0.343737        0.374972        0.281246
angle_coeff 4 fourier 90.420412        0.343737        0.374972        0.281246
angle_coeff 5 fourier 75.498766        0.343737        0.374972        0.281246
angle_coeff 6 cosine/periodic 88.853997              -1               3

# Positive deformation

variable delta equal 0.02*13.5406158532753
variable deltaxy equal 0.02*xy
variable deltaxz equal 0.02*xz
variable deltayz equal 0.02*yz
change_box all y delta 0 0.270812317065506 yz delta 0.00877665144732872 remap units box
Changing box ...
  triclinic box = (-0.056255179 -0.037331427 -0.033645932) to (15.602462 13.774097 17.280109) with tilt (-7.6260158 0.17849775 0.43883257)
  triclinic box = (-0.056255179 -0.037331427 -0.033645932) to (15.602462 13.774097 17.280109) with tilt (-7.6260158 0.17849775 0.44760922)

# Relax atoms positions

minimize 0 1e-10 100000 100000
Generated 6 of 6 mixed pair_coeff terms from arithmetic mixing rule
For more information see https://docs.lammps.org/err0027 (src/domain.cpp:1052)
Step          Temp          E_pair         E_mol          TotEng         Press
250291   285.89117     -452.06842      1044.7684      903.74831     -27884.288
Loop time of 0.0231961 on 1 procs for 29 steps with 366 atoms

Minimization stats:
  Stopping criterion = linesearch alpha is zero
  Energy initial, next-to-last, final =
  Force two-norm initial, final = 220.67723 14.453168
  Force max component initial, final = 23.395686 2.1676983
  Final line search alpha, max atom move = 5.6243823e-11 1.2191964e-10
  Iterations, force evaluations = 29 113

# Obtain new stress tensor

variable tmp equal pe
variable e1 equal 492.573055172074
variable tmp equal press
variable p1 equal -14837.1509170459
variable tmp equal pxx
variable pxx1 equal -7276.90240927184
variable tmp equal pyy
variable pyy1 equal -25021.1963674481
variable tmp equal pzz
variable pzz1 equal -12213.3539744177
variable tmp equal pxy
variable pxy1 equal 165.817736350111
variable tmp equal pxz
variable pxz1 equal 6093.55244466986
variable tmp equal pyz
variable pyz1 equal 3715.78889599172

# Compute elastic constant from pressure tensor

variable C1pos equal 53.8553441974788
variable C2pos equal 141.996278299345
variable C3pos equal 78.5168875322877
variable C4pos equal -6.8047756281684
variable C5pos equal 2.2921124685617
variable C6pos equal -3.92240085970741

# Combine positive and negative

variable C12 equal 0.5*(44.846780888699+53.8553441974788)
variable C22 equal 0.5*(140.235135345143+141.996278299345)
variable C32 equal 0.5*(11.421828771945+78.5168875322877)
variable C42 equal 0.5*(0.8824972245925+-6.8047756281684)
variable C52 equal 0.5*(0.00664673957150171+2.2921124685617)
variable C62 equal 0.5*(-2.01890757109064+-3.92240085970741)

# Delete dir to make sure it is not reused

variable dir delete

# uzz Perturbation

variable dir equal 3
include ./input/displace_333-HD-100C-14-VASP.mod
variable len0 equal 17.3137548641745

# Reset box and simulation parameters

clear
box tilt large

The 'box' command has been removed and will be ignored

read_restart restart_333-HD-100C-14-VASP.equil
Reading restart file ...
  restart file = 10 Sep 2025, LAMMPS = 10 Sep 2025
  restoring atom style full from restart
  triclinic box = (-0.056255179 -0.037331427 -0.033645932) to (15.602462 13.503284 17.280109) with tilt (-7.6260158 0.17849775 0.43883257)
  restoring pair style lj/cut from restart
  restoring bond style harmonic from restart
  restoring angle style hybrid from restart
  restoring dihedral style harmonic from restart
  366 atoms
  408 bonds
  792 angles
  1080 dihedrals
Finding 1-2 1-3 1-4 neighbors ...
     4 = max # of 1-2 neighbors
    10 = max # of 1-3 neighbors
    14 = max # of special neighbors
  read_restart CPU = 0.001 seconds
include ./input/angles_333-HD-100C-14-VASP.mod
angle_style hybrid fourier cosine/periodic
angle_coeff 1 fourier 157.882480        0.343737        0.374972        0.281246
angle_coeff 2 fourier 221.735285        0.343737        0.374972        0.281246
angle_coeff 3 fourier 114.246973        0.343737        0.374972        0.281246
angle_coeff 4 fourier 90.420412        0.343737        0.374972        0.281246
angle_coeff 5 fourier 75.498766        0.343737        0.374972        0.281246
angle_coeff 6 cosine/periodic 88.853997              -1               3

# Negative deformation

variable delta equal -0.02*17.3137548641745
variable deltaxy equal -0.02*xy
variable deltaxz equal -0.02*xz
variable deltayz equal -0.02*yz
change_box all z delta 0 -0.34627509728349 remap units box
Changing box ...
  triclinic box = (-0.056255179 -0.037331427 -0.033645932) to (15.602462 13.503284 16.933834) with tilt (-7.6260158 0.17849775 0.43883257)

# Relax atoms positions

minimize 0 1e-10 100000 100000
Generated 6 of 6 mixed pair_coeff terms from arithmetic mixing rule
For more information see https://docs.lammps.org/err0027 (src/domain.cpp:1052)
Step          Temp          E_pair         E_mol          TotEng         Press
250291   285.89117     -390.55413      983.75883      904.25306      37177.203
Loop time of 0.0278344 on 1 procs for 38 steps with 366 atoms

Minimization stats:
  Stopping criterion = linesearch alpha is zero
  Energy initial, next-to-last, final =
  Force two-norm initial, final = 227.19537 10.020328
  Force max component initial, final = 23.286661 1.3937192
  Final line search alpha, max atom move = 1.1142078e-10 1.5528928e-10
  Iterations, force evaluations = 38 129

# Obtain new stress tensor

variable tmp equal pxx
variable pxx1 equal 13095.5274662273
variable tmp equal pyy
variable pyy1 equal 10767.4533541462
variable tmp equal pzz
variable pzz1 equal 24777.2773247118
variable tmp equal pxy
variable pxy1 equal -1321.74213717204
variable tmp equal pxz
variable pxz1 equal 5404.80957836595
variable tmp equal pyz
variable pyz1 equal 2501.99334473227

# Compute elastic constant from pressure tensor

variable C1neg equal 48.006805180017
variable C2neg equal 36.9469703086265
variable C3neg equal 106.43626896336
variable C4neg equal 0.73579787187115
variable C5neg equal -5.73582680008125
variable C6neg equal -3.51539850790334

# Reset box and simulation parameters

clear
box tilt large

The 'box' command has been removed and will be ignored

read_restart restart_333-HD-100C-14-VASP.equil
Reading restart file ...
  restart file = 10 Sep 2025, LAMMPS = 10 Sep 2025
  restoring atom style full from restart
  triclinic box = (-0.056255179 -0.037331427 -0.033645932) to (15.602462 13.503284 17.280109) with tilt (-7.6260158 0.17849775 0.43883257)
  restoring pair style lj/cut from restart
  restoring bond style harmonic from restart
  restoring angle style hybrid from restart
  restoring dihedral style harmonic from restart
  366 atoms
  408 bonds
  792 angles
  1080 dihedrals
Finding 1-2 1-3 1-4 neighbors ...
     4 = max # of 1-2 neighbors
    10 = max # of 1-3 neighbors
    14 = max # of special neighbors
  read_restart CPU = 0.001 seconds
include ./input/angles_333-HD-100C-14-VASP.mod
angle_style hybrid fourier cosine/periodic
angle_coeff 1 fourier 157.882480        0.343737        0.374972        0.281246
angle_coeff 2 fourier 221.735285        0.343737        0.374972        0.281246
angle_coeff 3 fourier 114.246973        0.343737        0.374972        0.281246
angle_coeff 4 fourier 90.420412        0.343737        0.374972        0.281246
angle_coeff 5 fourier 75.498766        0.343737        0.374972        0.281246
angle_coeff 6 cosine/periodic 88.853997              -1               3

# Positive deformation

variable delta equal 0.02*17.3137548641745
variable deltaxy equal 0.02*xy
variable deltaxz equal 0.02*xz
variable deltayz equal 0.02*yz
change_box all z delta 0 0.34627509728349 remap units box
Changing box ...
  triclinic box = (-0.056255179 -0.037331427 -0.033645932) to (15.602462 13.503284 17.626384) with tilt (-7.6260158 0.17849775 0.43883257)

# Relax atoms positions

minimize 0 1e-10 100000 100000
Generated 6 of 6 mixed pair_coeff terms from arithmetic mixing rule
For more information see https://docs.lammps.org/err0027 (src/domain.cpp:1052)
Step          Temp          E_pair         E_mol          TotEng         Press
250291   285.89117     -455.82722      1047.2382      902.4593      -28937.239
Loop time of 0.0201389 on 1 procs for 20 steps with 366 atoms

Minimization stats:
  Stopping criterion = linesearch alpha is zero
  Energy initial, next-to-last, final =
  Force two-norm initial, final = 220.65542 22.848578
  Force max component initial, final = 21.655624 3.4632503
  Final line search alpha, max atom move = 1.7976424e-11 6.2256857e-11
  Iterations, force evaluations = 20 97

# Obtain new stress tensor

variable tmp equal pe
variable e1 equal 501.211405741128
variable tmp equal press
variable p1 equal -15196.001179686
variable tmp equal pxx
variable pxx1 equal -7426.16306937824
variable tmp equal pyy
variable pyy1 equal -6596.67941401392
variable tmp equal pzz
variable pzz1 equal -31565.1610556658
variable tmp equal pxy
variable pxy1 equal -360.163125236398
variable tmp equal pxz
variable pxz1 equal 6137.91996733881
variable tmp equal pyz
variable pyz1 equal 3245.80718316905

# Compute elastic constant from pressure tensor

variable C1pos equal 54.6016474980108
variable C2pos equal 49.873693532174
variable C3pos equal 175.275922938528
variable C4pos equal -4.45486706405505
variable C5pos equal 2.07027485521695
variable C6pos equal -1.29249655177487

# Combine positive and negative

variable C13 equal 0.5*(48.006805180017+54.6016474980108)
variable C23 equal 0.5*(36.9469703086265+49.873693532174)
variable C33 equal 0.5*(106.43626896336+175.275922938528)
variable C43 equal 0.5*(0.73579787187115+-4.45486706405505)
variable C53 equal 0.5*(-5.73582680008125+2.07027485521695)
variable C63 equal 0.5*(-3.51539850790334+-1.29249655177487)

# Delete dir to make sure it is not reused

variable dir delete

# uyz Perturbation

variable dir equal 4
include ./input/displace_333-HD-100C-14-VASP.mod
variable len0 equal 17.3137548641745

# Reset box and simulation parameters

clear
box tilt large

The 'box' command has been removed and will be ignored

read_restart restart_333-HD-100C-14-VASP.equil
Reading restart file ...
  restart file = 10 Sep 2025, LAMMPS = 10 Sep 2025
  restoring atom style full from restart
  triclinic box = (-0.056255179 -0.037331427 -0.033645932) to (15.602462 13.503284 17.280109) with tilt (-7.6260158 0.17849775 0.43883257)
  restoring pair style lj/cut from restart
  restoring bond style harmonic from restart
  restoring angle style hybrid from restart
  restoring dihedral style harmonic from restart
  366 atoms
  408 bonds
  792 angles
  1080 dihedrals
Finding 1-2 1-3 1-4 neighbors ...
     4 = max # of 1-2 neighbors
    10 = max # of 1-3 neighbors
    14 = max # of special neighbors
  read_restart CPU = 0.001 seconds
include ./input/angles_333-HD-100C-14-VASP.mod
angle_style hybrid fourier cosine/periodic
angle_coeff 1 fourier 157.882480        0.343737        0.374972        0.281246
angle_coeff 2 fourier 221.735285        0.343737        0.374972        0.281246
angle_coeff 3 fourier 114.246973        0.343737        0.374972        0.281246
angle_coeff 4 fourier 90.420412        0.343737        0.374972        0.281246
angle_coeff 5 fourier 75.498766        0.343737        0.374972        0.281246
angle_coeff 6 cosine/periodic 88.853997              -1               3

# Negative deformation

variable delta equal -0.02*17.3137548641745
variable deltaxy equal -0.02*xy
variable deltaxz equal -0.02*xz
variable deltayz equal -0.02*yz
change_box all yz delta -0.34627509728349 remap units box
Changing box ...
  triclinic box = (-0.056255179 -0.037331427 -0.033645932) to (15.602462 13.503284 17.280109) with tilt (-7.6260158 0.17849775 0.092557475)

# Relax atoms positions

minimize 0 1e-10 100000 100000
Generated 6 of 6 mixed pair_coeff terms from arithmetic mixing rule
For more information see https://docs.lammps.org/err0027 (src/domain.cpp:1052)
Step          Temp          E_pair         E_mol          TotEng         Press
250291   285.89117     -428.17442      1000.9081      883.78204      3223.4232
Loop time of 0.0235393 on 1 procs for 28 steps with 366 atoms

Minimization stats:
  Stopping criterion = linesearch alpha is zero
  Energy initial, next-to-last, final =
  Force two-norm initial, final = 185.1565 13.898769
  Force max component initial, final = 17.032716 2.1548077
  Final line search alpha, max atom move = 5.8770159e-11 1.2663839e-10
  Iterations, force evaluations = 28 111

# Obtain new stress tensor

variable tmp equal pxx
variable pxx1 equal 2384.59458264898
variable tmp equal pyy
variable pyy1 equal 636.987646488731
variable tmp equal pzz
variable pzz1 equal -4268.68237827239
variable tmp equal pxy
variable pxy1 equal -650.587559471805
variable tmp equal pxz
variable pxz1 equal 6355.71244422748
variable tmp equal pyz
variable pyz1 equal 12797.7572943575

# Compute elastic constant from pressure tensor

variable C1neg equal -5.54785923787465
variable C2neg equal -13.7053582296608
variable C3neg equal -38.7935295515611
variable C4neg equal 52.2146176199973
variable C5neg equal -0.981312470773601
variable C6neg equal -0.159625619402165

# Reset box and simulation parameters

clear
box tilt large

The 'box' command has been removed and will be ignored

read_restart restart_333-HD-100C-14-VASP.equil
Reading restart file ...
  restart file = 10 Sep 2025, LAMMPS = 10 Sep 2025
  restoring atom style full from restart
  triclinic box = (-0.056255179 -0.037331427 -0.033645932) to (15.602462 13.503284 17.280109) with tilt (-7.6260158 0.17849775 0.43883257)
  restoring pair style lj/cut from restart
  restoring bond style harmonic from restart
  restoring angle style hybrid from restart
  restoring dihedral style harmonic from restart
  366 atoms
  408 bonds
  792 angles
  1080 dihedrals
Finding 1-2 1-3 1-4 neighbors ...
     4 = max # of 1-2 neighbors
    10 = max # of 1-3 neighbors
    14 = max # of special neighbors
  read_restart CPU = 0.001 seconds
include ./input/angles_333-HD-100C-14-VASP.mod
angle_style hybrid fourier cosine/periodic
angle_coeff 1 fourier 157.882480        0.343737        0.374972        0.281246
angle_coeff 2 fourier 221.735285        0.343737        0.374972        0.281246
angle_coeff 3 fourier 114.246973        0.343737        0.374972        0.281246
angle_coeff 4 fourier 90.420412        0.343737        0.374972        0.281246
angle_coeff 5 fourier 75.498766        0.343737        0.374972        0.281246
angle_coeff 6 cosine/periodic 88.853997              -1               3

# Positive deformation

variable delta equal 0.02*17.3137548641745
variable deltaxy equal 0.02*xy
variable deltaxz equal 0.02*xz
variable deltayz equal 0.02*yz
change_box all yz delta 0.34627509728349 remap units box
Changing box ...
  triclinic box = (-0.056255179 -0.037331427 -0.033645932) to (15.602462 13.503284 17.280109) with tilt (-7.6260158 0.17849775 0.78510767)

# Relax atoms positions

minimize 0 1e-10 100000 100000
Generated 6 of 6 mixed pair_coeff terms from arithmetic mixing rule
For more information see https://docs.lammps.org/err0027 (src/domain.cpp:1052)
Step          Temp          E_pair         E_mol          TotEng         Press
250291   285.89117     -425.75334      995.55509      880.8501       3214.7056
Loop time of 0.0245299 on 1 procs for 29 steps with 366 atoms

Minimization stats:
  Stopping criterion = linesearch alpha is zero
  Energy initial, next-to-last, final =
  Force two-norm initial, final = 182.43045 13.665311
  Force max component initial, final = 18.476817 2.3623504
  Final line search alpha, max atom move = 4.4324769e-11 1.0471064e-10
  Iterations, force evaluations = 29 115

# Obtain new stress tensor

variable tmp equal pe
variable e1 equal 478.877775813908
variable tmp equal press
variable p1 equal 237.602351028763
variable tmp equal pxx
variable pxx1 equal 1821.67886022033
variable tmp equal pyy
variable pyy1 equal 2107.5456234349
variable tmp equal pzz
variable pzz1 equal -3216.41743056895
variable tmp equal pxy
variable pxy1 equal -627.286971068573
variable tmp equal pxz
variable pxz1 equal 5859.57654684307
variable tmp equal pyz
variable pyz1 equal -6517.2469327916

# Compute elastic constant from pressure tensor

variable C1pos equal 8.3624378500179
variable C2pos equal 6.35256834492995
variable C3pos equal 33.5322048130439
variable C4pos equal 44.3604035157482
variable C5pos equal 3.46199195769565
variable C6pos equal 0.0431226773860055

# Combine positive and negative

variable C14 equal 0.5*(-5.54785923787465+8.3624378500179)
variable C24 equal 0.5*(-13.7053582296608+6.35256834492995)
variable C34 equal 0.5*(-38.7935295515611+33.5322048130439)
variable C44 equal 0.5*(52.2146176199973+44.3604035157482)
variable C54 equal 0.5*(-0.981312470773601+3.46199195769565)
variable C64 equal 0.5*(-0.159625619402165+0.0431226773860055)

# Delete dir to make sure it is not reused

variable dir delete

# uxz Perturbation

variable dir equal 5
include ./input/displace_333-HD-100C-14-VASP.mod
variable len0 equal 17.3137548641745

# Reset box and simulation parameters

clear
box tilt large

The 'box' command has been removed and will be ignored

read_restart restart_333-HD-100C-14-VASP.equil
Reading restart file ...
  restart file = 10 Sep 2025, LAMMPS = 10 Sep 2025
  restoring atom style full from restart
  triclinic box = (-0.056255179 -0.037331427 -0.033645932) to (15.602462 13.503284 17.280109) with tilt (-7.6260158 0.17849775 0.43883257)
  restoring pair style lj/cut from restart
  restoring bond style harmonic from restart
  restoring angle style hybrid from restart
  restoring dihedral style harmonic from restart
  366 atoms
  408 bonds
  792 angles
  1080 dihedrals
Finding 1-2 1-3 1-4 neighbors ...
     4 = max # of 1-2 neighbors
    10 = max # of 1-3 neighbors
    14 = max # of special neighbors
  read_restart CPU = 0.001 seconds
include ./input/angles_333-HD-100C-14-VASP.mod
angle_style hybrid fourier cosine/periodic
angle_coeff 1 fourier 157.882480        0.343737        0.374972        0.281246
angle_coeff 2 fourier 221.735285        0.343737        0.374972        0.281246
angle_coeff 3 fourier 114.246973        0.343737        0.374972        0.281246
angle_coeff 4 fourier 90.420412        0.343737        0.374972        0.281246
angle_coeff 5 fourier 75.498766        0.343737        0.374972        0.281246
angle_coeff 6 cosine/periodic 88.853997              -1               3

# Negative deformation

variable delta equal -0.02*17.3137548641745
variable deltaxy equal -0.02*xy
variable deltaxz equal -0.02*xz
variable deltayz equal -0.02*yz
change_box all xz delta -0.34627509728349 remap units box
Changing box ...
  triclinic box = (-0.056255179 -0.037331427 -0.033645932) to (15.602462 13.503284 17.280109) with tilt (-7.6260158 -0.16777735 0.43883257)

# Relax atoms positions

minimize 0 1e-10 100000 100000
Generated 6 of 6 mixed pair_coeff terms from arithmetic mixing rule
For more information see https://docs.lammps.org/err0027 (src/domain.cpp:1052)
Step          Temp          E_pair         E_mol          TotEng         Press
250291   285.89117     -425.01459      1003.6155      889.64927      3425.2648
Loop time of 0.0280792 on 1 procs for 38 steps with 366 atoms

Minimization stats:
  Stopping criterion = linesearch alpha is zero
  Energy initial, next-to-last, final =
  Force two-norm initial, final = 183.88079 11.810582
  Force max component initial, final = 19.242116 1.4377394
  Final line search alpha, max atom move = 4.7530858e-11 6.8336989e-11
  Iterations, force evaluations = 38 131

# Obtain new stress tensor

variable tmp equal pxx
variable pxx1 equal 1958.37959913243
variable tmp equal pyy
variable pyy1 equal 1524.61141531868
variable tmp equal pzz
variable pzz1 equal -4025.57913345751
variable tmp equal pxy
variable pxy1 equal -1143.08859942265
variable tmp equal pxz
variable pxz1 equal 14659.934939073
variable tmp equal pyz
variable pyz1 equal 3701.85715312591

# Compute elastic constant from pressure tensor

variable C1neg equal -7.6789341554574
variable C2neg equal -9.26723938551105
variable C3neg equal -37.5780133274867
variable C4neg equal 6.73511691383935
variable C5neg equal 40.539800003454
variable C6neg equal -2.62213081915639

# Reset box and simulation parameters

clear
box tilt large

The 'box' command has been removed and will be ignored

read_restart restart_333-HD-100C-14-VASP.equil
Reading restart file ...
  restart file = 10 Sep 2025, LAMMPS = 10 Sep 2025
  restoring atom style full from restart
  triclinic box = (-0.056255179 -0.037331427 -0.033645932) to (15.602462 13.503284 17.280109) with tilt (-7.6260158 0.17849775 0.43883257)
  restoring pair style lj/cut from restart
  restoring bond style harmonic from restart
  restoring angle style hybrid from restart
  restoring dihedral style harmonic from restart
  366 atoms
  408 bonds
  792 angles
  1080 dihedrals
Finding 1-2 1-3 1-4 neighbors ...
     4 = max # of 1-2 neighbors
    10 = max # of 1-3 neighbors
    14 = max # of special neighbors
  read_restart CPU = 0.001 seconds
include ./input/angles_333-HD-100C-14-VASP.mod
angle_style hybrid fourier cosine/periodic
angle_coeff 1 fourier 157.882480        0.343737        0.374972        0.281246
angle_coeff 2 fourier 221.735285        0.343737        0.374972        0.281246
angle_coeff 3 fourier 114.246973        0.343737        0.374972        0.281246
angle_coeff 4 fourier 90.420412        0.343737        0.374972        0.281246
angle_coeff 5 fourier 75.498766        0.343737        0.374972        0.281246
angle_coeff 6 cosine/periodic 88.853997              -1               3

# Positive deformation

variable delta equal 0.02*17.3137548641745
variable deltaxy equal 0.02*xy
variable deltaxz equal 0.02*xz
variable deltayz equal 0.02*yz
change_box all xz delta 0.34627509728349 remap units box
Changing box ...
  triclinic box = (-0.056255179 -0.037331427 -0.033645932) to (15.602462 13.503284 17.280109) with tilt (-7.6260158 0.52477285 0.43883257)

# Relax atoms positions

minimize 0 1e-10 100000 100000
Generated 6 of 6 mixed pair_coeff terms from arithmetic mixing rule
For more information see https://docs.lammps.org/err0027 (src/domain.cpp:1052)
Step          Temp          E_pair         E_mol          TotEng         Press
250291   285.89117     -427.50717      992.75606      876.29724      3076.3023
Loop time of 0.0244076 on 1 procs for 30 steps with 366 atoms

Minimization stats:
  Stopping criterion = linesearch alpha is zero
  Energy initial, next-to-last, final =
  Force two-norm initial, final = 184.77064 12.546291
  Force max component initial, final = 16.581239 1.796459
  Final line search alpha, max atom move = 7.1648128e-11 1.2871293e-10
  Iterations, force evaluations = 30 115

# Obtain new stress tensor

variable tmp equal pe
variable e1 equal 475.6037910602
variable tmp equal press
variable p1 equal -359.162917822543
variable tmp equal pxx
variable pxx1 equal 1363.48468095804
variable tmp equal pyy
variable pyy1 equal 1360.8583621584
variable tmp equal pzz
variable pzz1 equal -3801.83179658407
variable tmp equal pxy
variable pxy1 equal -433.295575709862
variable tmp equal pxz
variable pxz1 equal -4004.95821871161
variable tmp equal pyz
variable pyz1 equal 2820.89159011753

# Compute elastic constant from pressure tensor

variable C1pos equal 10.6534087463294
variable C2pos equal 10.0860046513125
variable C3pos equal 36.4592766431195
variable C4pos equal -2.33028909879745
variable C5pos equal 52.784665785469
variable C6pos equal -0.92683429940755

# Combine positive and negative

variable C15 equal 0.5*(-7.6789341554574+10.6534087463294)
variable C25 equal 0.5*(-9.26723938551105+10.0860046513125)
variable C35 equal 0.5*(-37.5780133274867+36.4592766431195)
variable C45 equal 0.5*(6.73511691383935+-2.33028909879745)
variable C55 equal 0.5*(40.539800003454+52.784665785469)
variable C65 equal 0.5*(-2.62213081915639+-0.92683429940755)

# Delete dir to make sure it is not reused

variable dir delete

# uxy Perturbation

variable dir equal 6
include ./input/displace_333-HD-100C-14-VASP.mod
variable len0 equal 13.5406158532753

# Reset box and simulation parameters

clear
box tilt large

The 'box' command has been removed and will be ignored

read_restart restart_333-HD-100C-14-VASP.equil
Reading restart file ...
  restart file = 10 Sep 2025, LAMMPS = 10 Sep 2025
  restoring atom style full from restart
  triclinic box = (-0.056255179 -0.037331427 -0.033645932) to (15.602462 13.503284 17.280109) with tilt (-7.6260158 0.17849775 0.43883257)
  restoring pair style lj/cut from restart
  restoring bond style harmonic from restart
  restoring angle style hybrid from restart
  restoring dihedral style harmonic from restart
  366 atoms
  408 bonds
  792 angles
  1080 dihedrals
Finding 1-2 1-3 1-4 neighbors ...
     4 = max # of 1-2 neighbors
    10 = max # of 1-3 neighbors
    14 = max # of special neighbors
  read_restart CPU = 0.001 seconds
include ./input/angles_333-HD-100C-14-VASP.mod
angle_style hybrid fourier cosine/periodic
angle_coeff 1 fourier 157.882480        0.343737        0.374972        0.281246
angle_coeff 2 fourier 221.735285        0.343737        0.374972        0.281246
angle_coeff 3 fourier 114.246973        0.343737        0.374972        0.281246
angle_coeff 4 fourier 90.420412        0.343737        0.374972        0.281246
angle_coeff 5 fourier 75.498766        0.343737        0.374972        0.281246
angle_coeff 6 cosine/periodic 88.853997              -1               3

# Negative deformation

variable delta equal -0.02*13.5406158532753
variable deltaxy equal -0.02*xy
variable deltaxz equal -0.02*xz
variable deltayz equal -0.02*yz
change_box all xy delta -0.270812317065506 remap units box
Changing box ...
  triclinic box = (-0.056255179 -0.037331427 -0.033645932) to (15.602462 13.503284 17.280109) with tilt (-7.8968281 0.17849775 0.43883257)

# Relax atoms positions

minimize 0 1e-10 100000 100000
Generated 6 of 6 mixed pair_coeff terms from arithmetic mixing rule
For more information see https://docs.lammps.org/err0027 (src/domain.cpp:1052)
Step          Temp          E_pair         E_mol          TotEng         Press
250291   285.89117     -426.72111      996.95697      881.28422      2697.223
Loop time of 0.0216421 on 1 procs for 20 steps with 366 atoms

Minimization stats:
  Stopping criterion = linesearch alpha is zero
  Energy initial, next-to-last, final =
  Force two-norm initial, final = 186.91362 23.943144
  Force max component initial, final = 19.043027 2.8727144
  Final line search alpha, max atom move = 1.9022401e-11 5.4645925e-11
  Iterations, force evaluations = 20 97

# Obtain new stress tensor

variable tmp equal pxx
variable pxx1 equal 1179.98333450326
variable tmp equal pyy
variable pyy1 equal 1603.78629461923
variable tmp equal pzz
variable pzz1 equal -4126.6171319687
variable tmp equal pxy
variable pxy1 equal 8809.91757598719
variable tmp equal pxz
variable pxz1 equal 6335.33693522398
variable tmp equal pyz
variable pyz1 equal 2667.42914442199

# Compute elastic constant from pressure tensor

variable C1neg equal -11.5709154786033
variable C2neg equal -8.8713649890083
variable C3neg equal -38.0832033200426
variable C4neg equal 1.56297687031975
variable C5neg equal -1.0831900157911
variable C6neg equal 47.1429000578928

# Reset box and simulation parameters

clear
box tilt large

The 'box' command has been removed and will be ignored

read_restart restart_333-HD-100C-14-VASP.equil
Reading restart file ...
  restart file = 10 Sep 2025, LAMMPS = 10 Sep 2025
  restoring atom style full from restart
  triclinic box = (-0.056255179 -0.037331427 -0.033645932) to (15.602462 13.503284 17.280109) with tilt (-7.6260158 0.17849775 0.43883257)
  restoring pair style lj/cut from restart
  restoring bond style harmonic from restart
  restoring angle style hybrid from restart
  restoring dihedral style harmonic from restart
  366 atoms
  408 bonds
  792 angles
  1080 dihedrals
Finding 1-2 1-3 1-4 neighbors ...
     4 = max # of 1-2 neighbors
    10 = max # of 1-3 neighbors
    14 = max # of special neighbors
  read_restart CPU = 0.001 seconds
include ./input/angles_333-HD-100C-14-VASP.mod
angle_style hybrid fourier cosine/periodic
angle_coeff 1 fourier 157.882480        0.343737        0.374972        0.281246
angle_coeff 2 fourier 221.735285        0.343737        0.374972        0.281246
angle_coeff 3 fourier 114.246973        0.343737        0.374972        0.281246
angle_coeff 4 fourier 90.420412        0.343737        0.374972        0.281246
angle_coeff 5 fourier 75.498766        0.343737        0.374972        0.281246
angle_coeff 6 cosine/periodic 88.853997              -1               3

# Positive deformation

variable delta equal 0.02*13.5406158532753
variable deltaxy equal 0.02*xy
variable deltaxz equal 0.02*xz
variable deltayz equal 0.02*yz
change_box all xy delta 0.270812317065506 remap units box
Changing box ...
  triclinic box = (-0.056255179 -0.037331427 -0.033645932) to (15.602462 13.503284 17.280109) with tilt (-7.3552035 0.17849775 0.43883257)

# Relax atoms positions

minimize 0 1e-10 100000 100000
Generated 6 of 6 mixed pair_coeff terms from arithmetic mixing rule
For more information see https://docs.lammps.org/err0027 (src/domain.cpp:1052)
Step          Temp          E_pair         E_mol          TotEng         Press
250291   285.89117     -425.29208      997.32194      883.07821      3828.2159
Loop time of 0.0248587 on 1 procs for 31 steps with 366 atoms

Minimization stats:
  Stopping criterion = linesearch alpha is zero
  Energy initial, next-to-last, final =
  Force two-norm initial, final = 187.82015 10.192351
  Force max component initial, final = 17.080104 1.234316
  Final line search alpha, max atom move = 9.3885942e-11 1.1588492e-10
  Iterations, force evaluations = 31 117

# Obtain new stress tensor

variable tmp equal pe
variable e1 equal 481.863595039404
variable tmp equal press
variable p1 equal 271.365188437041
variable tmp equal pxx
variable pxx1 equal 2381.76297134499
variable tmp equal pyy
variable pyy1 equal 2256.9391566618
variable tmp equal pzz
variable pzz1 equal -3824.60656269567
variable tmp equal pxy
variable pxy1 equal -8985.92036639715
variable tmp equal pxz
variable pxz1 equal 6471.12490216255
variable tmp equal pyz
variable pyz1 equal 3103.81809171493

# Compute elastic constant from pressure tensor

variable C1pos equal 5.5620172943946
variable C2pos equal 5.60560067879545
variable C3pos equal 36.5731504736775
variable C4pos equal -3.74492160678445
variable C5pos equal 0.40425018109825
variable C6pos equal 41.8362896540289

# Combine positive and negative

variable C16 equal 0.5*(-11.5709154786033+5.5620172943946)
variable C26 equal 0.5*(-8.8713649890083+5.60560067879545)
variable C36 equal 0.5*(-38.0832033200426+36.5731504736775)
variable C46 equal 0.5*(1.56297687031975+-3.74492160678445)
variable C56 equal 0.5*(-1.0831900157911+0.40425018109825)
variable C66 equal 0.5*(47.1429000578928+41.8362896540289)

# Delete dir to make sure it is not reused

variable dir delete

# Output final values

variable C11all equal 137.080760354624
variable C22all equal 141.115706822244
variable C33all equal 140.856095950944

variable C12all equal 0.5*(49.3510625430889+49.5034537082347)
variable C13all equal 0.5*(51.3042263390139+51.6139700385792)
variable C23all equal 0.5*(43.4103319204003+44.9693581521163)

variable C44all equal 48.2875105678728
variable C55all equal 46.6622328944615
variable C66all equal 44.4895948559609

variable C14all equal 0.5*(1.40728930607162+0.0422931613673501)
variable C15all equal 0.5*(1.487237295436+6.55411243624105)
variable C16all equal 0.5*(-3.00444909210435+-1.14457072090964)

variable C24all equal 0.5*(-3.67639494236542+-2.96113920178795)
variable C25all equal 0.5*(0.409382632900725+1.1493796040666)
variable C26all equal 0.5*(-1.63288215510643+-2.97065421539902)

variable C34all equal 0.5*(-2.6306623692586+-1.85953459609195)
variable C35all equal 0.5*(-0.5593683421836+-1.83277597243215)
variable C36all equal 0.5*(-0.755026423182549+-2.40394752983911)

variable C45all equal 0.5*(2.20241390752095+1.24033974346102)
variable C46all equal 0.5*(-1.09097236823235+-0.0582514710080797)
variable C56all equal 0.5*(-0.339469917346425+-1.77448255928197)

# Average moduli for cubic crystals

variable C11cubic equal (137.080760354624+141.115706822244+140.856095950944)/3.0
variable C12cubic equal (49.4272581256618+51.4590981887965+44.1898450362583)/3.0
variable C44cubic equal (48.2875105678728+46.6622328944615+44.4895948559609)/3.0

variable bulkmodulus equal (139.684187709271+2*48.3587337835722)/3.0
variable shearmodulus1 equal 46.4797794394317
variable shearmodulus2 equal (139.684187709271-48.3587337835722)/2.0
variable poissonratio equal 1.0/(1.0+139.684187709271/48.3587337835722)

Elastic Constant 1 1 = 137.080760354624
Elastic Constant 2 2 = 141.115706822244
Elastic Constant 3 3 = 140.856095950944

Elastic Constant 1 2 = 49.4272581256618
Elastic Constant 1 3 = 51.4590981887965
Elastic Constant 2 3 = 44.1898450362583

Elastic Constant 4 4 = 48.2875105678728
Elastic Constant 5 5 = 46.6622328944615
Elastic Constant 6 6 = 44.4895948559609

Elastic Constant 1 4 = 0.724791233719485
Elastic Constant 1 5 = 4.02067486583852
Elastic Constant 1 6 = -2.074509906507

Elastic Constant 2 4 = -3.31876707207669
Elastic Constant 2 5 = 0.779381118483663
Elastic Constant 2 6 = -2.30176818525273

Elastic Constant 3 4 = -2.24509848267528
Elastic Constant 3 5 = -1.19607215730787
Elastic Constant 3 6 = -1.57948697651083

Elastic Constant 4 5 = 1.72137682549098
Elastic Constant 4 6 = -0.574611919620215
Elastic Constant 5 6 = -1.0569762383142

Bulk Modulus = 78.8005517588051 GPa
Shear Modulus 1 = 46.4797794394317 GPa
Shear Modulus 2 = 45.6627269628494 GPa
Poisson Ratio = 0.257168594274434

variable rho equal density
density (g/cm^3) = 1.94651731986873
