units           real
atom_style      full
boundary        p p p

pair_style      lj/cut 5.000
bond_style      harmonic
angle_style     hybrid cosine/periodic fourier
dihedral_style  harmonic

special_bonds   lj/coul 0.0 0.0 1.0
dielectric      1.0
pair_modify     tail yes mix arithmetic
box tilt        large

The 'box' command has been removed and will be ignored

read_data       ./dat/data.333U-50C-14-vasp
Reading data file ...
  triclinic box = (0 0 0) to (16.859739 12.609509 18.640259) with tilt (-8.851026 0.45889 0.205421)
  reading atoms ...
  371 atoms
  scanning bonds ...
  scanning angles ...
  scanning dihedrals ...
  triclinic box = (0 0 0) to (16.859739 12.609509 18.640259) with tilt (-8.851026 0.45889 0.205421)
  reading bonds ...
  396 bonds
  reading angles ...
  751 angles
  reading dihedrals ...
  942 dihedrals
Finding 1-2 1-3 1-4 neighbors ...
     4 = max # of 1-2 neighbors
    10 = max # of 1-3 neighbors
    14 = max # of special neighbors

#### Atom Groupings ####
group           fram     id   1:371
371 atoms in group fram
#### END Atom Groupings ####

compute am all property/atom mass
dump        atom_pos all extxyz 100 ./output/333U-50C-14-vasp.lammpstrj
dump_modify atom_pos element Si H C O mass yes
thermo          1000
thermo_style    custom step temp pe ke etotal press vol density

variable up equal 2e-2
variable cfac equal 1.0e-4
variable cunits string GPa

# Define minimization parameters
variable etol equal 0.0
variable ftol equal 1.0e-10
variable maxiter equal 100000
variable maxeval equal 100000
variable dmax equal 1.0e-2

variable temp equal 300.0
variable thermal_damp index 100.0
variable pressure_damp index 500.0

fix relax all box/relax aniso 0.0 vmax 0.001
unfix relax
minimize 0 1e-10 100000 100000
Generated 6 of 6 mixed pair_coeff terms from arithmetic mixing rule
For more information see https://docs.lammps.org/err0027 (src/domain.cpp:1052)
Step          Temp          PotEng         KinEng         TotEng         Press          Volume        Density
0   0              1434.6153      0              1434.6153      96600.578      3962.7892      1.6800742
Loop time of 0.0782143 on 1 procs for 113 steps with 371 atoms

Minimization stats:
  Stopping criterion = linesearch alpha is zero
  Energy initial, next-to-last, final =
  Force two-norm initial, final = 878.76511 18.122884
  Force max component initial, final = 95.766221 4.2792975
  Final line search alpha, max atom move = 2.8585093e-11 1.2232412e-10
  Iterations, force evaluations = 113 278

# Generating the full routine as described in the paper for UFF
fix nvt_relax   all nvt temp 300 300 100.0
run 100000      # 100 picoseconds
Generated 6 of 6 mixed pair_coeff terms from arithmetic mixing rule
For more information see https://docs.lammps.org/err0027 (src/domain.cpp:1052)
Step          Temp          PotEng         KinEng         TotEng         Press          Volume        Density
113   0              105.96069      0              105.96069      15168.577      3962.7892      1.6800742
Averages over the last 51 of 102 rows, steps 51000 to 100113:
Temp PotEng KinEng TotEng Press Volume Density
301.106 365.72 332.09 697.809 17066.9 3962.79 1.68007
Loop time of 24.2378 on 1 procs for 100000 steps with 371 atoms

unfix           nvt_relax

fix npt_relax   all npt temp 300 300 100.0 iso 0 0 500.0
run 100000      # 100 picoseconds
Generated 6 of 6 mixed pair_coeff terms from arithmetic mixing rule
For more information see https://docs.lammps.org/err0027 (src/domain.cpp:1052)
Step          Temp          PotEng         KinEng         TotEng         Press          Volume        Density
100113   320.56844      370.99251      353.55485      724.54736      24215.122      3962.7892      1.6800742
Averages over the last 51 of 102 rows, steps 151000 to 200113:
Temp PotEng KinEng TotEng Press Volume Density
302.391 351.119 333.507 684.625 -488.017 4247.05 1.5677
Loop time of 28.6253 on 1 procs for 100000 steps with 371 atoms

unfix           npt_relax

# run 100000      # 100 picoseconds
# unfix           nvt_heat
#
# run 100000      # 100 picoseconds
# unfix           npt_heat
#
# run 700000      # 700 picoseconds
# unfix           cooling_npt
#
# run 100000      # 100 picoseconds
# unfix           npt_final

# density computation
variable rho equal density
fix integrate  all npt temp 300 300 100.0 iso 0 0 500.0
fix rho50k all ave/time 10 5000 50000 v_rho mode scalar ave one
run 50000
Generated 6 of 6 mixed pair_coeff terms from arithmetic mixing rule
For more information see https://docs.lammps.org/err0027 (src/domain.cpp:1052)
Step          Temp          PotEng         KinEng         TotEng         Press          Volume        Density
200113   312.04475      339.1452       344.15407      683.29927     -1710.9763      4262.9701      1.5617702
Averages over the last 26 of 52 rows, steps 226000 to 250113:
Temp PotEng KinEng TotEng Press Volume Density
301.855 336.141 332.916 669.058 429.474 4230.99 1.57364
Loop time of 14.4894 on 1 procs for 50000 steps with 371 atoms

unfix integrate
unfix rho50k

# Compute initial state
fix 3 all box/relax  aniso 0.0
minimize 0 1e-10 100000 100000
Generated 6 of 6 mixed pair_coeff terms from arithmetic mixing rule
 (src/min.cpp:222)
For more information see https://docs.lammps.org/err0027 (src/domain.cpp:1052)
Step          Temp          PotEng         KinEng         TotEng         Press          Volume        Density
250113   321.52441      338.34322      354.60918      692.9524      -3052.6512      4260.9841      1.5624981
Loop time of 0.067148 on 1 procs for 212 steps with 371 atoms

Minimization stats:
  Stopping criterion = linesearch alpha is zero
  Energy initial, next-to-last, final =
  Force two-norm initial, final = 1197.5827 142.0272
  Force max component initial, final = 714.33558 26.010202
  Final line search alpha, max atom move = 4.6070546e-13 1.1983042e-11
  Iterations, force evaluations = 212 235

variable tmp equal pxx
variable pxx0 equal 3668.21677267973
variable tmp equal pyy
variable pyy0 equal 3427.95529492134
variable tmp equal pzz
variable pzz0 equal 3285.48770633926
variable tmp equal pyz
variable pyz0 equal 4163.6482020027
variable tmp equal pxz
variable pxz0 equal -1780.62902814922
variable tmp equal pxy
variable pxy0 equal -4835.63272096085

variable tmp equal lx
variable lx0 equal 17.3303344083793
variable tmp equal ly
variable ly0 equal 12.8726698961482
variable tmp equal lz
variable lz0 equal 18.9704362523268

# These formulas define the derivatives w.r.t. strain components
# Constants uses $, variables use v_
variable d1 equal -(v_pxx1-3668.21677267973)/(v_delta/v_len0)*0.0001
variable d2 equal -(v_pyy1-3427.95529492134)/(v_delta/v_len0)*0.0001
variable d3 equal -(v_pzz1-3285.48770633926)/(v_delta/v_len0)*0.0001
variable d4 equal -(v_pyz1-4163.6482020027)/(v_delta/v_len0)*0.0001
variable d5 equal -(v_pxz1--1780.62902814922)/(v_delta/v_len0)*0.0001
variable d6 equal -(v_pxy1--4835.63272096085)/(v_delta/v_len0)*0.0001

# Write restart
unfix 3
write_restart restart_333U-50C-14-vasp.equil
System init for write_restart ...
Generated 6 of 6 mixed pair_coeff terms from arithmetic mixing rule

# uxx Perturbation

variable dir equal 1
include ./input/displace_333U-50C-14-vasp.mod
variable len0 equal 17.3303344083793

# Reset box and simulation parameters

clear
box tilt large

The 'box' command has been removed and will be ignored

read_restart restart_333U-50C-14-vasp.equil
Reading restart file ...
  restart file = 10 Sep 2025, LAMMPS = 10 Sep 2025
  restoring atom style full from restart
  triclinic box = (-0.2352977 -0.13158045 -0.16508863) to (17.095037 12.741089 18.805348) with tilt (-9.0357472 0.46701838 0.20905965)
  restoring pair style lj/cut from restart
  restoring bond style harmonic from restart
  restoring angle style hybrid from restart
  restoring dihedral style harmonic from restart
  371 atoms
  396 bonds
  751 angles
  942 dihedrals
Finding 1-2 1-3 1-4 neighbors ...
     4 = max # of 1-2 neighbors
    10 = max # of 1-3 neighbors
    14 = max # of special neighbors
  read_restart CPU = 0.002 seconds
include ./input/angles_333U-50C-14-vasp.mod
angle_style hybrid fourier cosine/periodic
angle_coeff 1 fourier 32.417871        0.343737        0.374972        0.281246
angle_coeff 2 fourier 83.380072        0.343737        0.374972        0.281246
angle_coeff 3 fourier 221.735285        0.343737        0.374972        0.281246
angle_coeff 4 fourier 114.246973        0.343737        0.374972        0.281246
angle_coeff 5 fourier 157.882480        0.343737        0.374972        0.281246
angle_coeff 6 fourier 58.020602        0.343737        0.374972        0.281246
angle_coeff 7 fourier 90.420412        0.343737        0.374972        0.281246
angle_coeff 8 fourier 75.498766        0.343737        0.374972        0.281246
angle_coeff 9 cosine/periodic 88.853997              -1               3

# Negative deformation

variable delta equal -0.02*17.3303344083793
variable deltaxy equal -0.02*xy
variable deltaxz equal -0.02*xz
variable deltayz equal -0.02*yz
change_box all x delta 0 -0.346606688167586 xy delta 0.180714944475987 xz delta -0.00934036752582713 remap units box
Changing box ...
  triclinic box = (-0.2352977 -0.13158045 -0.16508863) to (16.74843 12.741089 18.805348) with tilt (-9.0357472 0.46701838 0.20905965)
  triclinic box = (-0.2352977 -0.13158045 -0.16508863) to (16.74843 12.741089 18.805348) with tilt (-8.8550323 0.46701838 0.20905965)
  triclinic box = (-0.2352977 -0.13158045 -0.16508863) to (16.74843 12.741089 18.805348) with tilt (-8.8550323 0.45767801 0.20905965)

# Relax atoms positions

minimize 0 1e-10 100000 100000
Generated 6 of 6 mixed pair_coeff terms from arithmetic mixing rule
For more information see https://docs.lammps.org/err0027 (src/domain.cpp:1052)
Step          Temp          E_pair         E_mol          TotEng         Press
250325   321.52441     -403.56892      555.81049      506.85075      27815.425
Loop time of 0.0307911 on 1 procs for 36 steps with 371 atoms

Minimization stats:
  Stopping criterion = linesearch alpha is zero
  Energy initial, next-to-last, final =
  Force two-norm initial, final = 224.97169 17.315923
  Force max component initial, final = 25.128575 2.5829874
  Final line search alpha, max atom move = 4.0033971e-11 1.0340724e-10
  Iterations, force evaluations = 36 126

# Obtain new stress tensor

variable tmp equal pxx
variable pxx1 equal 12383.1422282069
variable tmp equal pyy
variable pyy1 equal 2438.14147746194
variable tmp equal pzz
variable pzz1 equal -607.48331461062
variable tmp equal pxy
variable pxy1 equal -4496.35300359549
variable tmp equal pxz
variable pxz1 equal -1036.35607003762
variable tmp equal pyz
variable pyz1 equal 4516.62262229066

# Compute elastic constant from pressure tensor

variable C1neg equal 43.5746272776358
variable C2neg equal -4.949069087297
variable C3neg equal -19.4648551047494
variable C4neg equal 1.7648721014398
variable C5neg equal 3.721364790558
variable C6neg equal 1.6963985868268

# Reset box and simulation parameters

clear
box tilt large

The 'box' command has been removed and will be ignored

read_restart restart_333U-50C-14-vasp.equil
Reading restart file ...
  restart file = 10 Sep 2025, LAMMPS = 10 Sep 2025
  restoring atom style full from restart
  triclinic box = (-0.2352977 -0.13158045 -0.16508863) to (17.095037 12.741089 18.805348) with tilt (-9.0357472 0.46701838 0.20905965)
  restoring pair style lj/cut from restart
  restoring bond style harmonic from restart
  restoring angle style hybrid from restart
  restoring dihedral style harmonic from restart
  371 atoms
  396 bonds
  751 angles
  942 dihedrals
Finding 1-2 1-3 1-4 neighbors ...
     4 = max # of 1-2 neighbors
    10 = max # of 1-3 neighbors
    14 = max # of special neighbors
  read_restart CPU = 0.002 seconds
include ./input/angles_333U-50C-14-vasp.mod
angle_style hybrid fourier cosine/periodic
angle_coeff 1 fourier 32.417871        0.343737        0.374972        0.281246
angle_coeff 2 fourier 83.380072        0.343737        0.374972        0.281246
angle_coeff 3 fourier 221.735285        0.343737        0.374972        0.281246
angle_coeff 4 fourier 114.246973        0.343737        0.374972        0.281246
angle_coeff 5 fourier 157.882480        0.343737        0.374972        0.281246
angle_coeff 6 fourier 58.020602        0.343737        0.374972        0.281246
angle_coeff 7 fourier 90.420412        0.343737        0.374972        0.281246
angle_coeff 8 fourier 75.498766        0.343737        0.374972        0.281246
angle_coeff 9 cosine/periodic 88.853997              -1               3

# Positive deformation

variable delta equal 0.02*17.3303344083793
variable deltaxy equal 0.02*xy
variable deltaxz equal 0.02*xz
variable deltayz equal 0.02*yz
change_box all x delta 0 0.346606688167586 xy delta -0.180714944475987 xz delta 0.00934036752582713 remap units box
Changing box ...
  triclinic box = (-0.2352977 -0.13158045 -0.16508863) to (17.441643 12.741089 18.805348) with tilt (-9.0357472 0.46701838 0.20905965)
  triclinic box = (-0.2352977 -0.13158045 -0.16508863) to (17.441643 12.741089 18.805348) with tilt (-9.2164622 0.46701838 0.20905965)
  triclinic box = (-0.2352977 -0.13158045 -0.16508863) to (17.441643 12.741089 18.805348) with tilt (-9.2164622 0.47635874 0.20905965)

# Relax atoms positions

minimize 0 1e-10 100000 100000
Generated 6 of 6 mixed pair_coeff terms from arithmetic mixing rule
For more information see https://docs.lammps.org/err0027 (src/domain.cpp:1052)
Step          Temp          E_pair         E_mol          TotEng         Press
250325   321.52441     -436.76208      590.70685      508.55395     -20065.859
Loop time of 0.0322427 on 1 procs for 40 steps with 371 atoms

Minimization stats:
  Stopping criterion = linesearch alpha is zero
  Energy initial, next-to-last, final =
  Force two-norm initial, final = 217.1796 19.200184
  Force max component initial, final = 23.204254 2.6381952
  Final line search alpha, max atom move = 3.0269254e-11 7.98562e-11
  Iterations, force evaluations = 40 135

# Obtain new stress tensor

variable tmp equal pe
variable e1 equal 6.57561468107582
variable tmp equal press
variable p1 equal -5852.28230681199
variable tmp equal pxx
variable pxx1 equal -5246.08764773137
variable tmp equal pyy
variable pyy1 equal -3525.97385351765
variable tmp equal pzz
variable pzz1 equal -8784.78541918693
variable tmp equal pxy
variable pxy1 equal -4107.7763958593
variable tmp equal pxz
variable pxz1 equal -1718.40979067769
variable tmp equal pyz
variable pyz1 equal 5159.51673205198

# Compute elastic constant from pressure tensor

variable C1pos equal 44.5715221020555
variable C2pos equal 34.769645742195
variable C3pos equal 60.351365627631
variable C4pos equal -4.9793426502464
variable C5pos equal -0.31109618735765
variable C6pos equal -3.63928162550775

# Combine positive and negative

variable C11 equal 0.5*(43.5746272776358+44.5715221020555)
variable C21 equal 0.5*(-4.949069087297+34.769645742195)
variable C31 equal 0.5*(-19.4648551047494+60.351365627631)
variable C41 equal 0.5*(1.7648721014398+-4.9793426502464)
variable C51 equal 0.5*(3.721364790558+-0.31109618735765)
variable C61 equal 0.5*(1.6963985868268+-3.63928162550775)

# Delete dir to make sure it is not reused

variable dir delete

# uyy Perturbation

variable dir equal 2
include ./input/displace_333U-50C-14-vasp.mod
variable len0 equal 12.8726698961482

# Reset box and simulation parameters

clear
box tilt large

The 'box' command has been removed and will be ignored

read_restart restart_333U-50C-14-vasp.equil
Reading restart file ...
  restart file = 10 Sep 2025, LAMMPS = 10 Sep 2025
  restoring atom style full from restart
  triclinic box = (-0.2352977 -0.13158045 -0.16508863) to (17.095037 12.741089 18.805348) with tilt (-9.0357472 0.46701838 0.20905965)
  restoring pair style lj/cut from restart
  restoring bond style harmonic from restart
  restoring angle style hybrid from restart
  restoring dihedral style harmonic from restart
  371 atoms
  396 bonds
  751 angles
  942 dihedrals
Finding 1-2 1-3 1-4 neighbors ...
     4 = max # of 1-2 neighbors
    10 = max # of 1-3 neighbors
    14 = max # of special neighbors
  read_restart CPU = 0.001 seconds
include ./input/angles_333U-50C-14-vasp.mod
angle_style hybrid fourier cosine/periodic
angle_coeff 1 fourier 32.417871        0.343737        0.374972        0.281246
angle_coeff 2 fourier 83.380072        0.343737        0.374972        0.281246
angle_coeff 3 fourier 221.735285        0.343737        0.374972        0.281246
angle_coeff 4 fourier 114.246973        0.343737        0.374972        0.281246
angle_coeff 5 fourier 157.882480        0.343737        0.374972        0.281246
angle_coeff 6 fourier 58.020602        0.343737        0.374972        0.281246
angle_coeff 7 fourier 90.420412        0.343737        0.374972        0.281246
angle_coeff 8 fourier 75.498766        0.343737        0.374972        0.281246
angle_coeff 9 cosine/periodic 88.853997              -1               3

# Negative deformation

variable delta equal -0.02*12.8726698961482
variable deltaxy equal -0.02*xy
variable deltaxz equal -0.02*xz
variable deltayz equal -0.02*yz
change_box all y delta 0 -0.257453397922964 yz delta -0.0041811929602367 remap units box
Changing box ...
  triclinic box = (-0.2352977 -0.13158045 -0.16508863) to (17.095037 12.483636 18.805348) with tilt (-9.0357472 0.46701838 0.20905965)
  triclinic box = (-0.2352977 -0.13158045 -0.16508863) to (17.095037 12.483636 18.805348) with tilt (-9.0357472 0.46701838 0.20487846)

# Relax atoms positions

minimize 0 1e-10 100000 100000
Generated 6 of 6 mixed pair_coeff terms from arithmetic mixing rule
For more information see https://docs.lammps.org/err0027 (src/domain.cpp:1052)
Step          Temp          E_pair         E_mol          TotEng         Press
250325   321.52441     -404.01686      554.30618      504.8985       27511.099
Loop time of 0.0360173 on 1 procs for 37 steps with 371 atoms

Minimization stats:
  Stopping criterion = linesearch alpha is zero
  Energy initial, next-to-last, final =
  Force two-norm initial, final = 225.36888 14.641191
  Force max component initial, final = 23.77805 1.7139072
  Final line search alpha, max atom move = 5.4339147e-11 9.3132257e-11
  Iterations, force evaluations = 37 145

# Obtain new stress tensor

variable tmp equal pxx
variable pxx1 equal 6521.49589473986
variable tmp equal pyy
variable pyy1 equal 8663.18723899711
variable tmp equal pzz
variable pzz1 equal -1168.4714946895
variable tmp equal pxy
variable pxy1 equal -3980.33872191094
variable tmp equal pxz
variable pxz1 equal -1168.25498626909
variable tmp equal pyz
variable pyz1 equal 4737.27902025377

# Compute elastic constant from pressure tensor

variable C1neg equal 14.2663956103007
variable C2neg equal 26.1761597203789
variable C3neg equal -22.2697960051438
variable C4neg equal 2.86815409125535
variable C5neg equal 3.06187020940065
variable C6neg equal 4.27646999524955

# Reset box and simulation parameters

clear
box tilt large

The 'box' command has been removed and will be ignored

read_restart restart_333U-50C-14-vasp.equil
Reading restart file ...
  restart file = 10 Sep 2025, LAMMPS = 10 Sep 2025
  restoring atom style full from restart
  triclinic box = (-0.2352977 -0.13158045 -0.16508863) to (17.095037 12.741089 18.805348) with tilt (-9.0357472 0.46701838 0.20905965)
  restoring pair style lj/cut from restart
  restoring bond style harmonic from restart
  restoring angle style hybrid from restart
  restoring dihedral style harmonic from restart
  371 atoms
  396 bonds
  751 angles
  942 dihedrals
Finding 1-2 1-3 1-4 neighbors ...
     4 = max # of 1-2 neighbors
    10 = max # of 1-3 neighbors
    14 = max # of special neighbors
  read_restart CPU = 0.001 seconds
include ./input/angles_333U-50C-14-vasp.mod
angle_style hybrid fourier cosine/periodic
angle_coeff 1 fourier 32.417871        0.343737        0.374972        0.281246
angle_coeff 2 fourier 83.380072        0.343737        0.374972        0.281246
angle_coeff 3 fourier 221.735285        0.343737        0.374972        0.281246
angle_coeff 4 fourier 114.246973        0.343737        0.374972        0.281246
angle_coeff 5 fourier 157.882480        0.343737        0.374972        0.281246
angle_coeff 6 fourier 58.020602        0.343737        0.374972        0.281246
angle_coeff 7 fourier 90.420412        0.343737        0.374972        0.281246
angle_coeff 8 fourier 75.498766        0.343737        0.374972        0.281246
angle_coeff 9 cosine/periodic 88.853997              -1               3

# Positive deformation

variable delta equal 0.02*12.8726698961482
variable deltaxy equal 0.02*xy
variable deltaxz equal 0.02*xz
variable deltayz equal 0.02*yz
change_box all y delta 0 0.257453397922964 yz delta 0.0041811929602367 remap units box
Changing box ...
  triclinic box = (-0.2352977 -0.13158045 -0.16508863) to (17.095037 12.998543 18.805348) with tilt (-9.0357472 0.46701838 0.20905965)
  triclinic box = (-0.2352977 -0.13158045 -0.16508863) to (17.095037 12.998543 18.805348) with tilt (-9.0357472 0.46701838 0.21324084)

# Relax atoms positions

minimize 0 1e-10 100000 100000
Generated 6 of 6 mixed pair_coeff terms from arithmetic mixing rule
For more information see https://docs.lammps.org/err0027 (src/domain.cpp:1052)
Step          Temp          E_pair         E_mol          TotEng         Press
250325   321.52441     -436.61213      590.64961      508.64667     -19761.907
Loop time of 0.0398005 on 1 procs for 55 steps with 371 atoms

Minimization stats:
  Stopping criterion = linesearch alpha is zero
  Energy initial, next-to-last, final =
  Force two-norm initial, final = 219.99286 12.695572
  Force max component initial, final = 25.508358 1.6179161
  Final line search alpha, max atom move = 4.8701364e-11 7.879472e-11
  Iterations, force evaluations = 55 165

# Obtain new stress tensor

variable tmp equal pe
variable e1 equal 7.93838678940483
variable tmp equal press
variable p1 equal -5181.15050226138
variable tmp equal pxx
variable pxx1 equal 390.595379977229
variable tmp equal pyy
variable pyy1 equal -8221.66567123916
variable tmp equal pzz
variable pzz1 equal -7712.3812155222
variable tmp equal pxy
variable pxy1 equal -4542.49413223944
variable tmp equal pxz
variable pxz1 equal -2056.19663974695
variable tmp equal pyz
variable pyz1 equal 4790.48679034589

# Compute elastic constant from pressure tensor

variable C1pos equal 16.3881069635125
variable C2pos equal 58.2481048308025
variable C3pos equal 54.9893446093073
variable C4pos equal -3.13419294171595
variable C5pos equal 1.37783805798865
variable C6pos equal -1.46569294360705

# Combine positive and negative

variable C12 equal 0.5*(14.2663956103007+16.3881069635125)
variable C22 equal 0.5*(26.1761597203789+58.2481048308025)
variable C32 equal 0.5*(-22.2697960051438+54.9893446093073)
variable C42 equal 0.5*(2.86815409125535+-3.13419294171595)
variable C52 equal 0.5*(3.06187020940065+1.37783805798865)
variable C62 equal 0.5*(4.27646999524955+-1.46569294360705)

# Delete dir to make sure it is not reused

variable dir delete

# uzz Perturbation

variable dir equal 3
include ./input/displace_333U-50C-14-vasp.mod
variable len0 equal 18.9704362523268

# Reset box and simulation parameters

clear
box tilt large

The 'box' command has been removed and will be ignored

read_restart restart_333U-50C-14-vasp.equil
Reading restart file ...
  restart file = 10 Sep 2025, LAMMPS = 10 Sep 2025
  restoring atom style full from restart
  triclinic box = (-0.2352977 -0.13158045 -0.16508863) to (17.095037 12.741089 18.805348) with tilt (-9.0357472 0.46701838 0.20905965)
  restoring pair style lj/cut from restart
  restoring bond style harmonic from restart
  restoring angle style hybrid from restart
  restoring dihedral style harmonic from restart
  371 atoms
  396 bonds
  751 angles
  942 dihedrals
Finding 1-2 1-3 1-4 neighbors ...
     4 = max # of 1-2 neighbors
    10 = max # of 1-3 neighbors
    14 = max # of special neighbors
  read_restart CPU = 0.001 seconds
include ./input/angles_333U-50C-14-vasp.mod
angle_style hybrid fourier cosine/periodic
angle_coeff 1 fourier 32.417871        0.343737        0.374972        0.281246
angle_coeff 2 fourier 83.380072        0.343737        0.374972        0.281246
angle_coeff 3 fourier 221.735285        0.343737        0.374972        0.281246
angle_coeff 4 fourier 114.246973        0.343737        0.374972        0.281246
angle_coeff 5 fourier 157.882480        0.343737        0.374972        0.281246
angle_coeff 6 fourier 58.020602        0.343737        0.374972        0.281246
angle_coeff 7 fourier 90.420412        0.343737        0.374972        0.281246
angle_coeff 8 fourier 75.498766        0.343737        0.374972        0.281246
angle_coeff 9 cosine/periodic 88.853997              -1               3

# Negative deformation

variable delta equal -0.02*18.9704362523268
variable deltaxy equal -0.02*xy
variable deltaxz equal -0.02*xz
variable deltayz equal -0.02*yz
change_box all z delta 0 -0.379408725046536 remap units box
Changing box ...
  triclinic box = (-0.2352977 -0.13158045 -0.16508863) to (17.095037 12.741089 18.425939) with tilt (-9.0357472 0.46701838 0.20905965)

# Relax atoms positions

minimize 0 1e-10 100000 100000
Generated 6 of 6 mixed pair_coeff terms from arithmetic mixing rule
For more information see https://docs.lammps.org/err0027 (src/domain.cpp:1052)
Step          Temp          E_pair         E_mol          TotEng         Press
250325   321.52441     -398.86889      553.94966      509.68994      29561.04
Loop time of 0.117957 on 1 procs for 54 steps with 371 atoms

Minimization stats:
  Stopping criterion = linesearch alpha is zero
  Energy initial, next-to-last, final =
  Force two-norm initial, final = 237.50394 14.713405
  Force max component initial, final = 25.762955 2.4006413
  Final line search alpha, max atom move = 3.879474e-11 9.3132257e-11
  Iterations, force evaluations = 54 489

# Obtain new stress tensor

variable tmp equal pxx
variable pxx1 equal 7508.62914871479
variable tmp equal pyy
variable pyy1 equal 3196.08137069039
variable tmp equal pzz
variable pzz1 equal 7567.84159913936
variable tmp equal pxy
variable pxy1 equal -3837.98051114531
variable tmp equal pxz
variable pxz1 equal -1313.7937821631
variable tmp equal pyz
variable pyz1 equal 5461.87062357899

# Compute elastic constant from pressure tensor

variable C1neg equal 19.2020618801753
variable C2neg equal -1.15936962115475
variable C3neg equal 21.4117694640005
variable C4neg equal 6.49111210788145
variable C5neg equal 2.3341762299306
variable C6neg equal 4.9882610490777

# Reset box and simulation parameters

clear
box tilt large

The 'box' command has been removed and will be ignored

read_restart restart_333U-50C-14-vasp.equil
Reading restart file ...
  restart file = 10 Sep 2025, LAMMPS = 10 Sep 2025
  restoring atom style full from restart
  triclinic box = (-0.2352977 -0.13158045 -0.16508863) to (17.095037 12.741089 18.805348) with tilt (-9.0357472 0.46701838 0.20905965)
  restoring pair style lj/cut from restart
  restoring bond style harmonic from restart
  restoring angle style hybrid from restart
  restoring dihedral style harmonic from restart
  371 atoms
  396 bonds
  751 angles
  942 dihedrals
Finding 1-2 1-3 1-4 neighbors ...
     4 = max # of 1-2 neighbors
    10 = max # of 1-3 neighbors
    14 = max # of special neighbors
  read_restart CPU = 0.001 seconds
include ./input/angles_333U-50C-14-vasp.mod
angle_style hybrid fourier cosine/periodic
angle_coeff 1 fourier 32.417871        0.343737        0.374972        0.281246
angle_coeff 2 fourier 83.380072        0.343737        0.374972        0.281246
angle_coeff 3 fourier 221.735285        0.343737        0.374972        0.281246
angle_coeff 4 fourier 114.246973        0.343737        0.374972        0.281246
angle_coeff 5 fourier 157.882480        0.343737        0.374972        0.281246
angle_coeff 6 fourier 58.020602        0.343737        0.374972        0.281246
angle_coeff 7 fourier 90.420412        0.343737        0.374972        0.281246
angle_coeff 8 fourier 75.498766        0.343737        0.374972        0.281246
angle_coeff 9 cosine/periodic 88.853997              -1               3

# Positive deformation

variable delta equal 0.02*18.9704362523268
variable deltaxy equal 0.02*xy
variable deltaxz equal 0.02*xz
variable deltayz equal 0.02*yz
change_box all z delta 0 0.379408725046536 remap units box
Changing box ...
  triclinic box = (-0.2352977 -0.13158045 -0.16508863) to (17.095037 12.741089 19.184756) with tilt (-9.0357472 0.46701838 0.20905965)

# Relax atoms positions

minimize 0 1e-10 100000 100000
Generated 6 of 6 mixed pair_coeff terms from arithmetic mixing rule
For more information see https://docs.lammps.org/err0027 (src/domain.cpp:1052)
Step          Temp          E_pair         E_mol          TotEng         Press
250325   321.52441     -440.66738      596.75711      510.69891     -21736.108
Loop time of 0.031552 on 1 procs for 39 steps with 371 atoms

Minimization stats:
  Stopping criterion = linesearch alpha is zero
  Energy initial, next-to-last, final =
  Force two-norm initial, final = 226.07181 19.30733
  Force max component initial, final = 26.884943 2.3488647
  Final line search alpha, max atom move = 2.8448041e-11 6.68206e-11
  Iterations, force evaluations = 39 132

# Obtain new stress tensor

variable tmp equal pe
variable e1 equal 18.437047713052
variable tmp equal press
variable p1 equal -7333.53834079083
variable tmp equal pxx
variable pxx1 equal -842.074400872771
variable tmp equal pyy
variable pyy1 equal -4107.87761551354
variable tmp equal pzz
variable pzz1 equal -17050.6630059862
variable tmp equal pxy
variable pxy1 equal -4502.57656490717
variable tmp equal pxz
variable pxz1 equal -1808.29994055302
variable tmp equal pyz
variable pyz1 equal 4656.3841018628

# Compute elastic constant from pressure tensor

variable C1pos equal 22.5514558677625
variable C2pos equal 37.6791645521744
variable C3pos equal 101.680753561627
variable C4pos equal -2.4636794993005
variable C5pos equal 0.138354562019
variable C6pos equal -1.6652807802684

# Combine positive and negative

variable C13 equal 0.5*(19.2020618801753+22.5514558677625)
variable C23 equal 0.5*(-1.15936962115475+37.6791645521744)
variable C33 equal 0.5*(21.4117694640005+101.680753561627)
variable C43 equal 0.5*(6.49111210788145+-2.4636794993005)
variable C53 equal 0.5*(2.3341762299306+0.138354562019)
variable C63 equal 0.5*(4.9882610490777+-1.6652807802684)

# Delete dir to make sure it is not reused

variable dir delete

# uyz Perturbation

variable dir equal 4
include ./input/displace_333U-50C-14-vasp.mod
variable len0 equal 18.9704362523268

# Reset box and simulation parameters

clear
box tilt large

The 'box' command has been removed and will be ignored

read_restart restart_333U-50C-14-vasp.equil
Reading restart file ...
  restart file = 10 Sep 2025, LAMMPS = 10 Sep 2025
  restoring atom style full from restart
  triclinic box = (-0.2352977 -0.13158045 -0.16508863) to (17.095037 12.741089 18.805348) with tilt (-9.0357472 0.46701838 0.20905965)
  restoring pair style lj/cut from restart
  restoring bond style harmonic from restart
  restoring angle style hybrid from restart
  restoring dihedral style harmonic from restart
  371 atoms
  396 bonds
  751 angles
  942 dihedrals
Finding 1-2 1-3 1-4 neighbors ...
     4 = max # of 1-2 neighbors
    10 = max # of 1-3 neighbors
    14 = max # of special neighbors
  read_restart CPU = 0.001 seconds
include ./input/angles_333U-50C-14-vasp.mod
angle_style hybrid fourier cosine/periodic
angle_coeff 1 fourier 32.417871        0.343737        0.374972        0.281246
angle_coeff 2 fourier 83.380072        0.343737        0.374972        0.281246
angle_coeff 3 fourier 221.735285        0.343737        0.374972        0.281246
angle_coeff 4 fourier 114.246973        0.343737        0.374972        0.281246
angle_coeff 5 fourier 157.882480        0.343737        0.374972        0.281246
angle_coeff 6 fourier 58.020602        0.343737        0.374972        0.281246
angle_coeff 7 fourier 90.420412        0.343737        0.374972        0.281246
angle_coeff 8 fourier 75.498766        0.343737        0.374972        0.281246
angle_coeff 9 cosine/periodic 88.853997              -1               3

# Negative deformation

variable delta equal -0.02*18.9704362523268
variable deltaxy equal -0.02*xy
variable deltaxz equal -0.02*xz
variable deltayz equal -0.02*yz
change_box all yz delta -0.379408725046536 remap units box
Changing box ...
  triclinic box = (-0.2352977 -0.13158045 -0.16508863) to (17.095037 12.741089 18.805348) with tilt (-9.0357472 0.46701838 -0.17034908)

# Relax atoms positions

minimize 0 1e-10 100000 100000
Generated 6 of 6 mixed pair_coeff terms from arithmetic mixing rule
For more information see https://docs.lammps.org/err0027 (src/domain.cpp:1052)
Step          Temp          E_pair         E_mol          TotEng         Press
250325   321.52441     -421.10719      562.30306      495.80505      3027.8501
Loop time of 0.0295198 on 1 procs for 32 steps with 371 atoms

Minimization stats:
  Stopping criterion = linesearch alpha is zero
  Energy initial, next-to-last, final =
  Force two-norm initial, final = 184.49548 20.545791
  Force max component initial, final = 19.193085 2.5303101
  Final line search alpha, max atom move = 1.8206849e-11 4.6068974e-11
  Iterations, force evaluations = 32 120

# Obtain new stress tensor

variable tmp equal pxx
variable pxx1 equal 2745.2272087639
variable tmp equal pyy
variable pyy1 equal -864.47753870978
variable tmp equal pzz
variable pzz1 equal -4951.99169742264
variable tmp equal pxy
variable pxy1 equal -4786.97894917134
variable tmp equal pxz
variable pxz1 equal -1475.84338808083
variable tmp equal pyz
variable pyz1 equal 9109.13387445032

# Compute elastic constant from pressure tensor

variable C1neg equal -4.61494781957915
variable C2neg equal -21.4621641681556
variable C3neg equal -41.1873970188095
variable C4neg equal 24.7274283622381
variable C5neg equal 1.52392820034195
variable C6neg equal 0.243268858947549

# Reset box and simulation parameters

clear
box tilt large

The 'box' command has been removed and will be ignored

read_restart restart_333U-50C-14-vasp.equil
Reading restart file ...
  restart file = 10 Sep 2025, LAMMPS = 10 Sep 2025
  restoring atom style full from restart
  triclinic box = (-0.2352977 -0.13158045 -0.16508863) to (17.095037 12.741089 18.805348) with tilt (-9.0357472 0.46701838 0.20905965)
  restoring pair style lj/cut from restart
  restoring bond style harmonic from restart
  restoring angle style hybrid from restart
  restoring dihedral style harmonic from restart
  371 atoms
  396 bonds
  751 angles
  942 dihedrals
Finding 1-2 1-3 1-4 neighbors ...
     4 = max # of 1-2 neighbors
    10 = max # of 1-3 neighbors
    14 = max # of special neighbors
  read_restart CPU = 0.001 seconds
include ./input/angles_333U-50C-14-vasp.mod
angle_style hybrid fourier cosine/periodic
angle_coeff 1 fourier 32.417871        0.343737        0.374972        0.281246
angle_coeff 2 fourier 83.380072        0.343737        0.374972        0.281246
angle_coeff 3 fourier 221.735285        0.343737        0.374972        0.281246
angle_coeff 4 fourier 114.246973        0.343737        0.374972        0.281246
angle_coeff 5 fourier 157.882480        0.343737        0.374972        0.281246
angle_coeff 6 fourier 58.020602        0.343737        0.374972        0.281246
angle_coeff 7 fourier 90.420412        0.343737        0.374972        0.281246
angle_coeff 8 fourier 75.498766        0.343737        0.374972        0.281246
angle_coeff 9 cosine/periodic 88.853997              -1               3

# Positive deformation

variable delta equal 0.02*18.9704362523268
variable deltaxy equal 0.02*xy
variable deltaxz equal 0.02*xz
variable deltayz equal 0.02*yz
change_box all yz delta 0.379408725046536 remap units box
Changing box ...
  triclinic box = (-0.2352977 -0.13158045 -0.16508863) to (17.095037 12.741089 18.805348) with tilt (-9.0357472 0.46701838 0.58846837)

# Relax atoms positions

minimize 0 1e-10 100000 100000
Generated 6 of 6 mixed pair_coeff terms from arithmetic mixing rule
For more information see https://docs.lammps.org/err0027 (src/domain.cpp:1052)
Step          Temp          E_pair         E_mol          TotEng         Press
250325   321.52441     -423.34296      552.57982      483.84604      3536.0621
Loop time of 0.0476745 on 1 procs for 55 steps with 371 atoms

Minimization stats:
  Stopping criterion = linesearch alpha is zero
  Energy initial, next-to-last, final =
  Force two-norm initial, final = 186.34969 12.359264
  Force max component initial, final = 18.712587 1.4511519
  Final line search alpha, max atom move = 4.6289609e-11 6.7173254e-11
  Iterations, force evaluations = 55 198

# Obtain new stress tensor

variable tmp equal pe
variable e1 equal -4.44809084022285
variable tmp equal press
variable p1 equal -886.654537486308
variable tmp equal pxx
variable pxx1 equal 3516.56457772216
variable tmp equal pyy
variable pyy1 equal -920.650599853229
variable tmp equal pzz
variable pzz1 equal -5255.87759032786
variable tmp equal pxy
variable pxy1 equal -3905.07948799438
variable tmp equal pxz
variable pxz1 equal -1944.63473190363
variable tmp equal pyz
variable pyz1 equal 237.93860539136

# Compute elastic constant from pressure tensor

variable C1pos equal 0.758260974787852
variable C2pos equal 21.7430294738728
variable C3pos equal 42.7068264833356
variable C4pos equal 19.6285479830567
variable C5pos equal 0.82002851877205
variable C6pos equal -4.65276616483235

# Combine positive and negative

variable C14 equal 0.5*(-4.61494781957915+0.758260974787852)
variable C24 equal 0.5*(-21.4621641681556+21.7430294738728)
variable C34 equal 0.5*(-41.1873970188095+42.7068264833356)
variable C44 equal 0.5*(24.7274283622381+19.6285479830567)
variable C54 equal 0.5*(1.52392820034195+0.82002851877205)
variable C64 equal 0.5*(0.243268858947549+-4.65276616483235)

# Delete dir to make sure it is not reused

variable dir delete

# uxz Perturbation

variable dir equal 5
include ./input/displace_333U-50C-14-vasp.mod
variable len0 equal 18.9704362523268

# Reset box and simulation parameters

clear
box tilt large

The 'box' command has been removed and will be ignored

read_restart restart_333U-50C-14-vasp.equil
Reading restart file ...
  restart file = 10 Sep 2025, LAMMPS = 10 Sep 2025
  restoring atom style full from restart
  triclinic box = (-0.2352977 -0.13158045 -0.16508863) to (17.095037 12.741089 18.805348) with tilt (-9.0357472 0.46701838 0.20905965)
  restoring pair style lj/cut from restart
  restoring bond style harmonic from restart
  restoring angle style hybrid from restart
  restoring dihedral style harmonic from restart
  371 atoms
  396 bonds
  751 angles
  942 dihedrals
Finding 1-2 1-3 1-4 neighbors ...
     4 = max # of 1-2 neighbors
    10 = max # of 1-3 neighbors
    14 = max # of special neighbors
  read_restart CPU = 0.001 seconds
include ./input/angles_333U-50C-14-vasp.mod
angle_style hybrid fourier cosine/periodic
angle_coeff 1 fourier 32.417871        0.343737        0.374972        0.281246
angle_coeff 2 fourier 83.380072        0.343737        0.374972        0.281246
angle_coeff 3 fourier 221.735285        0.343737        0.374972        0.281246
angle_coeff 4 fourier 114.246973        0.343737        0.374972        0.281246
angle_coeff 5 fourier 157.882480        0.343737        0.374972        0.281246
angle_coeff 6 fourier 58.020602        0.343737        0.374972        0.281246
angle_coeff 7 fourier 90.420412        0.343737        0.374972        0.281246
angle_coeff 8 fourier 75.498766        0.343737        0.374972        0.281246
angle_coeff 9 cosine/periodic 88.853997              -1               3

# Negative deformation

variable delta equal -0.02*18.9704362523268
variable deltaxy equal -0.02*xy
variable deltaxz equal -0.02*xz
variable deltayz equal -0.02*yz
change_box all xz delta -0.379408725046536 remap units box
Changing box ...
  triclinic box = (-0.2352977 -0.13158045 -0.16508863) to (17.095037 12.741089 18.805348) with tilt (-9.0357472 0.087609651 0.20905965)

# Relax atoms positions

minimize 0 1e-10 100000 100000
Generated 6 of 6 mixed pair_coeff terms from arithmetic mixing rule
For more information see https://docs.lammps.org/err0027 (src/domain.cpp:1052)
Step          Temp          E_pair         E_mol          TotEng         Press
250325   321.52441     -422.26001      554.84505      487.19422      3248.0761
Loop time of 0.13001 on 1 procs for 81 steps with 371 atoms

Minimization stats:
  Stopping criterion = linesearch alpha is zero
  Energy initial, next-to-last, final =
  Force two-norm initial, final = 186.48719 7.719992
  Force max component initial, final = 17.238085 1.0311795
  Final line search alpha, max atom move = 1.8063248e-10 1.8626451e-10
  Iterations, force evaluations = 81 542

# Obtain new stress tensor

variable tmp equal pxx
variable pxx1 equal 3560.26533598951
variable tmp equal pyy
variable pyy1 equal 455.231705643316
variable tmp equal pzz
variable pzz1 equal -4051.71789791794
variable tmp equal pxy
variable pxy1 equal -4828.4218241131
variable tmp equal pxz
variable pxz1 equal 2176.98633331905
variable tmp equal pyz
variable pyz1 equal 5366.7431250437

# Compute elastic constant from pressure tensor

variable C1neg equal -0.539757183451102
variable C2neg equal -14.8636179463901
variable C3neg equal -36.686028021286
variable C4neg equal 6.015474615205
variable C5neg equal 19.7880768073414
variable C6neg equal 0.036054484238748

# Reset box and simulation parameters

clear
box tilt large

The 'box' command has been removed and will be ignored

read_restart restart_333U-50C-14-vasp.equil
Reading restart file ...
  restart file = 10 Sep 2025, LAMMPS = 10 Sep 2025
  restoring atom style full from restart
  triclinic box = (-0.2352977 -0.13158045 -0.16508863) to (17.095037 12.741089 18.805348) with tilt (-9.0357472 0.46701838 0.20905965)
  restoring pair style lj/cut from restart
  restoring bond style harmonic from restart
  restoring angle style hybrid from restart
  restoring dihedral style harmonic from restart
  371 atoms
  396 bonds
  751 angles
  942 dihedrals
Finding 1-2 1-3 1-4 neighbors ...
     4 = max # of 1-2 neighbors
    10 = max # of 1-3 neighbors
    14 = max # of special neighbors
  read_restart CPU = 0.001 seconds
include ./input/angles_333U-50C-14-vasp.mod
angle_style hybrid fourier cosine/periodic
angle_coeff 1 fourier 32.417871        0.343737        0.374972        0.281246
angle_coeff 2 fourier 83.380072        0.343737        0.374972        0.281246
angle_coeff 3 fourier 221.735285        0.343737        0.374972        0.281246
angle_coeff 4 fourier 114.246973        0.343737        0.374972        0.281246
angle_coeff 5 fourier 157.882480        0.343737        0.374972        0.281246
angle_coeff 6 fourier 58.020602        0.343737        0.374972        0.281246
angle_coeff 7 fourier 90.420412        0.343737        0.374972        0.281246
angle_coeff 8 fourier 75.498766        0.343737        0.374972        0.281246
angle_coeff 9 cosine/periodic 88.853997              -1               3

# Positive deformation

variable delta equal 0.02*18.9704362523268
variable deltaxy equal 0.02*xy
variable deltaxz equal 0.02*xz
variable deltayz equal 0.02*yz
change_box all xz delta 0.379408725046536 remap units box
Changing box ...
  triclinic box = (-0.2352977 -0.13158045 -0.16508863) to (17.095037 12.741089 18.805348) with tilt (-9.0357472 0.8464271 0.20905965)

# Relax atoms positions

minimize 0 1e-10 100000 100000
Generated 6 of 6 mixed pair_coeff terms from arithmetic mixing rule
For more information see https://docs.lammps.org/err0027 (src/domain.cpp:1052)
Step          Temp          E_pair         E_mol          TotEng         Press
250325   321.52441     -422.49375      560.21904      492.33447      3299.8938
Loop time of 0.0301398 on 1 procs for 35 steps with 371 atoms

Minimization stats:
  Stopping criterion = linesearch alpha is zero
  Energy initial, next-to-last, final =
  Force two-norm initial, final = 183.64074 18.733839
  Force max component initial, final = 19.920847 3.0571559
  Final line search alpha, max atom move = 1.9089679e-11 5.8360123e-11
  Iterations, force evaluations = 35 125

# Obtain new stress tensor

variable tmp equal pe
variable e1 equal 6.84583801680941
variable tmp equal press
variable p1 equal -1414.31481659312
variable tmp equal pxx
variable pxx1 equal 2601.82315732382
variable tmp equal pyy
variable pyy1 equal -1173.27633802336
variable tmp equal pzz
variable pzz1 equal -5671.49126907983
variable tmp equal pxy
variable pxy1 equal -4046.95058660158
variable tmp equal pxz
variable pxz1 equal -5624.32924146176
variable tmp equal pyz
variable pyz1 equal 4701.75844821072

# Compute elastic constant from pressure tensor

variable C1pos equal 5.33196807677955
variable C2pos equal 23.0061581647235
variable C3pos equal 44.7848948770954
variable C4pos equal -2.6905512310401
variable C5pos equal 19.2185010665627
variable C6pos equal -3.94341067179635

# Combine positive and negative

variable C15 equal 0.5*(-0.539757183451102+5.33196807677955)
variable C25 equal 0.5*(-14.8636179463901+23.0061581647235)
variable C35 equal 0.5*(-36.686028021286+44.7848948770954)
variable C45 equal 0.5*(6.015474615205+-2.6905512310401)
variable C55 equal 0.5*(19.7880768073414+19.2185010665627)
variable C65 equal 0.5*(0.036054484238748+-3.94341067179635)

# Delete dir to make sure it is not reused

variable dir delete

# uxy Perturbation

variable dir equal 6
include ./input/displace_333U-50C-14-vasp.mod
variable len0 equal 12.8726698961482

# Reset box and simulation parameters

clear
box tilt large

The 'box' command has been removed and will be ignored

read_restart restart_333U-50C-14-vasp.equil
Reading restart file ...
  restart file = 10 Sep 2025, LAMMPS = 10 Sep 2025
  restoring atom style full from restart
  triclinic box = (-0.2352977 -0.13158045 -0.16508863) to (17.095037 12.741089 18.805348) with tilt (-9.0357472 0.46701838 0.20905965)
  restoring pair style lj/cut from restart
  restoring bond style harmonic from restart
  restoring angle style hybrid from restart
  restoring dihedral style harmonic from restart
  371 atoms
  396 bonds
  751 angles
  942 dihedrals
Finding 1-2 1-3 1-4 neighbors ...
     4 = max # of 1-2 neighbors
    10 = max # of 1-3 neighbors
    14 = max # of special neighbors
  read_restart CPU = 0.001 seconds
include ./input/angles_333U-50C-14-vasp.mod
angle_style hybrid fourier cosine/periodic
angle_coeff 1 fourier 32.417871        0.343737        0.374972        0.281246
angle_coeff 2 fourier 83.380072        0.343737        0.374972        0.281246
angle_coeff 3 fourier 221.735285        0.343737        0.374972        0.281246
angle_coeff 4 fourier 114.246973        0.343737        0.374972        0.281246
angle_coeff 5 fourier 157.882480        0.343737        0.374972        0.281246
angle_coeff 6 fourier 58.020602        0.343737        0.374972        0.281246
angle_coeff 7 fourier 90.420412        0.343737        0.374972        0.281246
angle_coeff 8 fourier 75.498766        0.343737        0.374972        0.281246
angle_coeff 9 cosine/periodic 88.853997              -1               3

# Negative deformation

variable delta equal -0.02*12.8726698961482
variable deltaxy equal -0.02*xy
variable deltaxz equal -0.02*xz
variable deltayz equal -0.02*yz
change_box all xy delta -0.257453397922964 remap units box
Changing box ...
  triclinic box = (-0.2352977 -0.13158045 -0.16508863) to (17.095037 12.741089 18.805348) with tilt (-9.2932006 0.46701838 0.20905965)

# Relax atoms positions

minimize 0 1e-10 100000 100000
Generated 6 of 6 mixed pair_coeff terms from arithmetic mixing rule
For more information see https://docs.lammps.org/err0027 (src/domain.cpp:1052)
Step          Temp          E_pair         E_mol          TotEng         Press
250325   321.52441     -421.63992      550.01569      482.98495      3741.9845
Loop time of 0.107728 on 1 procs for 45 steps with 371 atoms

Minimization stats:
  Stopping criterion = linesearch alpha is zero
  Energy initial, next-to-last, final =
  Force two-norm initial, final = 183.90981 15.431084
  Force max component initial, final = 17.988609 1.7806567
  Final line search alpha, max atom move = 5.2302198e-11 9.3132257e-11
  Iterations, force evaluations = 45 452

# Obtain new stress tensor

variable tmp equal pxx
variable pxx1 equal 3086.6958034199
variable tmp equal pyy
variable pyy1 equal -536.079022645208
variable tmp equal pzz
variable pzz1 equal -4992.51682164484
variable tmp equal pxy
variable pxy1 equal -743.063468765074
variable tmp equal pxz
variable pxz1 equal -1873.2044153476
variable tmp equal pyz
variable pyz1 equal 4380.5442705104

# Compute elastic constant from pressure tensor

variable C1neg equal -2.90760484629915
variable C2neg equal -19.8201715878327
variable C3neg equal -41.3900226399205
variable C4neg equal 1.0844803425385
variable C5neg equal -0.4628769359919
variable C6neg equal 20.4628462609789

# Reset box and simulation parameters

clear
box tilt large

The 'box' command has been removed and will be ignored

read_restart restart_333U-50C-14-vasp.equil
Reading restart file ...
  restart file = 10 Sep 2025, LAMMPS = 10 Sep 2025
  restoring atom style full from restart
  triclinic box = (-0.2352977 -0.13158045 -0.16508863) to (17.095037 12.741089 18.805348) with tilt (-9.0357472 0.46701838 0.20905965)
  restoring pair style lj/cut from restart
  restoring bond style harmonic from restart
  restoring angle style hybrid from restart
  restoring dihedral style harmonic from restart
  371 atoms
  396 bonds
  751 angles
  942 dihedrals
Finding 1-2 1-3 1-4 neighbors ...
     4 = max # of 1-2 neighbors
    10 = max # of 1-3 neighbors
    14 = max # of special neighbors
  read_restart CPU = 0.001 seconds
include ./input/angles_333U-50C-14-vasp.mod
angle_style hybrid fourier cosine/periodic
angle_coeff 1 fourier 32.417871        0.343737        0.374972        0.281246
angle_coeff 2 fourier 83.380072        0.343737        0.374972        0.281246
angle_coeff 3 fourier 221.735285        0.343737        0.374972        0.281246
angle_coeff 4 fourier 114.246973        0.343737        0.374972        0.281246
angle_coeff 5 fourier 157.882480        0.343737        0.374972        0.281246
angle_coeff 6 fourier 58.020602        0.343737        0.374972        0.281246
angle_coeff 7 fourier 90.420412        0.343737        0.374972        0.281246
angle_coeff 8 fourier 75.498766        0.343737        0.374972        0.281246
angle_coeff 9 cosine/periodic 88.853997              -1               3

# Positive deformation

variable delta equal 0.02*12.8726698961482
variable deltaxy equal 0.02*xy
variable deltaxz equal 0.02*xz
variable deltayz equal 0.02*yz
change_box all xy delta 0.257453397922964 remap units box
Changing box ...
  triclinic box = (-0.2352977 -0.13158045 -0.16508863) to (17.095037 12.741089 18.805348) with tilt (-8.7782938 0.46701838 0.20905965)

# Relax atoms positions

minimize 0 1e-10 100000 100000
Generated 6 of 6 mixed pair_coeff terms from arithmetic mixing rule
For more information see https://docs.lammps.org/err0027 (src/domain.cpp:1052)
Step          Temp          E_pair         E_mol          TotEng         Press
250325   321.52441     -423.7618       563.70622      494.55361      2813.7708
Loop time of 0.0306218 on 1 procs for 36 steps with 371 atoms

Minimization stats:
  Stopping criterion = linesearch alpha is zero
  Energy initial, next-to-last, final =
  Force two-norm initial, final = 187.62192 17.259651
  Force max component initial, final = 23.949936 2.1847662
  Final line search alpha, max atom move = 4.0739601e-11 8.9006504e-11
  Iterations, force evaluations = 36 126

# Obtain new stress tensor

variable tmp equal pe
variable e1 equal 8.78193725520862
variable tmp equal press
variable p1 equal -1135.81303318108
variable tmp equal pxx
variable pxx1 equal 2981.84898186679
variable tmp equal pyy
variable pyy1 equal -926.797391833691
variable tmp equal pzz
variable pzz1 equal -5462.49068957634
variable tmp equal pxy
variable pxy1 equal -7845.48411846248
variable tmp equal pxz
variable pxz1 equal -1160.20205898238
variable tmp equal pyz
variable pyz1 equal 5080.79658055347

# Compute elastic constant from pressure tensor

variable C1pos equal 3.4318389540647
variable C2pos equal 21.7737634337752
variable C3pos equal 43.739891979578
variable C4pos equal -4.58574189275385
variable C5pos equal -3.1021348458342
variable C6pos equal 15.0492569875082

# Combine positive and negative

variable C16 equal 0.5*(-2.90760484629915+3.4318389540647)
variable C26 equal 0.5*(-19.8201715878327+21.7737634337752)
variable C36 equal 0.5*(-41.3900226399205+43.739891979578)
variable C46 equal 0.5*(1.0844803425385+-4.58574189275385)
variable C56 equal 0.5*(-0.4628769359919+-3.1021348458342)
variable C66 equal 0.5*(20.4628462609789+15.0492569875082)

# Delete dir to make sure it is not reused

variable dir delete

# Output final values

variable C11all equal 44.0730746898457
variable C22all equal 42.2121322755907
variable C33all equal 61.5462615128138

variable C12all equal 0.5*(15.3272512869066+14.910288327449)
variable C13all equal 0.5*(20.8767588739689+20.4432552614408)
variable C23all equal 0.5*(18.2598974655098+16.3597743020818)

variable C44all equal 22.1779881726474
variable C55all equal 19.503288936952
variable C66all equal 17.7560516242436

variable C14all equal 0.5*(-1.92834342239565+-1.6072352744033)
variable C15all equal 0.5*(2.39610544666422+1.70513430160017)
variable C16all equal 0.5*(0.262117053882775+-0.971441519340475)

variable C24all equal 0.5*(0.1404326528586+-0.1330194252303)
variable C25all equal 0.5*(4.0712701091667+2.21985413369465)
variable C26all equal 0.5*(0.976795922971251+1.40538852582125)

variable C34all equal 0.5*(0.759714732263049+2.01371630429048)
variable C35all equal 0.5*(4.0494334279047+1.2362653959748)
variable C36all equal 0.5*(1.17493466982875+1.66149013440465)

variable C45all equal 0.5*(1.66246169208245+1.171978359557)
variable C46all equal 0.5*(-1.75063077510768+-2.2047486529424)
variable C56all equal 0.5*(-1.78250589091305+-1.9536780937788)

# Average moduli for cubic crystals

variable C11cubic equal (44.0730746898457+42.2121322755907+61.5462615128138)/3.0
variable C12cubic equal (15.1187698071778+20.6600070677048+17.3098358837958)/3.0
variable C44cubic equal (22.1779881726474+19.503288936952+17.7560516242436)/3.0

variable bulkmodulus equal (49.2771561594167+2*17.6962042528928)/3.0
variable shearmodulus1 equal 19.812442911281
variable shearmodulus2 equal (49.2771561594167-17.6962042528928)/2.0
variable poissonratio equal 1.0/(1.0+49.2771561594167/17.6962042528928)

Elastic Constant 1 1 = 44.0730746898457
Elastic Constant 2 2 = 42.2121322755907
Elastic Constant 3 3 = 61.5462615128138

Elastic Constant 1 2 = 15.1187698071778
Elastic Constant 1 3 = 20.6600070677048
Elastic Constant 2 3 = 17.3098358837958

Elastic Constant 4 4 = 22.1779881726474
Elastic Constant 5 5 = 19.503288936952
Elastic Constant 6 6 = 17.7560516242436

Elastic Constant 1 4 = -1.76778934839948
Elastic Constant 1 5 = 2.0506198741322
Elastic Constant 1 6 = -0.35466223272885

Elastic Constant 2 4 = 0.00370661381414999
Elastic Constant 2 5 = 3.14556212143067
Elastic Constant 2 6 = 1.19109222439625

Elastic Constant 3 4 = 1.38671551827676
Elastic Constant 3 5 = 2.64284941193975
Elastic Constant 3 6 = 1.4182124021167

Elastic Constant 4 5 = 1.41722002581972
Elastic Constant 4 6 = -1.97768971402504
Elastic Constant 5 6 = -1.86809199234593

Bulk Modulus = 28.2231882217341 GPa
Shear Modulus 1 = 19.812442911281 GPa
Shear Modulus 2 = 15.7904759532619 GPa
Poisson Ratio = 0.264227509922591

variable rho equal density
density (g/cm^3) = 1.57317315405139
