units           real
atom_style      full
boundary        p p p

pair_style      lj/cut 5.000
bond_style      harmonic
angle_style     hybrid fourier cosine/periodic
dihedral_style  harmonic

pair_modify     tail yes mix arithmetic
special_bonds   lj/coul 0.0 0.0 1.0
dielectric      1.0
box tilt        large

The 'box' command has been removed and will be ignored

read_data       ./dat/data.333U-50C-1-vasp
Reading data file ...
  triclinic box = (0 0 0) to (17.141708 12.825146 17.586657) with tilt (-8.381958 0.030516 0.302718)
  reading atoms ...
  362 atoms
  scanning bonds ...
  scanning angles ...
  scanning dihedrals ...
  triclinic box = (0 0 0) to (17.141708 12.825146 17.586657) with tilt (-8.381958 0.030516 0.302718)
  reading bonds ...
  387 bonds
  reading angles ...
  733 angles
  reading dihedrals ...
  915 dihedrals
Finding 1-2 1-3 1-4 neighbors ...
     4 = max # of 1-2 neighbors
     8 = max # of 1-3 neighbors
    12 = max # of special neighbors

#### Atom Groupings ####
group           fram     id   1:362
362 atoms in group fram
#### END Atom Groupings ####

compute am all property/atom mass
dump        atom_pos all extxyz 100 ./output/333U-50C-1-vasp.lammpstrj
dump_modify atom_pos element Si C H O mass yes
thermo          1000
thermo_style    custom step temp pe ke etotal press vol density

variable up equal 2e-2
variable cfac equal 1.0e-4
variable cunits string GPa

# Define minimization parameters
variable etol equal 0.0
variable ftol equal 1.0e-10
variable maxiter equal 100000
variable maxeval equal 100000
variable dmax equal 1.0e-2

variable temp equal 300.0
variable thermal_damp index 100.0
variable pressure_damp index 500.0

fix relax all box/relax aniso 0.0 vmax 0.001
unfix relax
minimize 0 1e-10 100000 100000
Generated 6 of 6 mixed pair_coeff terms from arithmetic mixing rule
For more information see https://docs.lammps.org/err0027 (src/domain.cpp:1052)
Step          Temp          PotEng         KinEng         TotEng         Press          Volume        Density
0   0              1448.4416      0              1448.4416      98400.206      3866.337       1.7039137
Loop time of 0.0459284 on 1 procs for 85 steps with 362 atoms

Minimization stats:
  Stopping criterion = linesearch alpha is zero
  Energy initial, next-to-last, final =
  Force two-norm initial, final = 879.33652 18.39808
  Force max component initial, final = 92.471648 2.2949082
  Final line search alpha, max atom move = 2.665007e-11 6.1159464e-11
  Iterations, force evaluations = 85 221

# Generating the full routine as described in the paper for UFF
fix nvt_relax   all nvt temp 300 300 100.0
run 100000      # 100 picoseconds
Generated 6 of 6 mixed pair_coeff terms from arithmetic mixing rule
For more information see https://docs.lammps.org/err0027 (src/domain.cpp:1052)
Step          Temp          PotEng         KinEng         TotEng         Press          Volume        Density
85   0              123.34189      0              123.34189      9943.1396      3866.337       1.7039137
Averages over the last 51 of 102 rows, steps 51000 to 100085:
Temp PotEng KinEng TotEng Press Volume Density
298.944 392.532 321.685 714.217 22783.5 3866.34 1.70391
Loop time of 22.953 on 1 procs for 100000 steps with 362 atoms

unfix           nvt_relax

fix npt_relax   all npt temp 300 300 100.0 iso 0 0 500.0
run 100000      # 100 picoseconds
Generated 6 of 6 mixed pair_coeff terms from arithmetic mixing rule
For more information see https://docs.lammps.org/err0027 (src/domain.cpp:1052)
Step          Temp          PotEng         KinEng         TotEng         Press          Volume        Density
100085   300.2567       404.04919      323.09796      727.14714      17404.105      3866.337       1.7039137
Averages over the last 51 of 102 rows, steps 151000 to 200085:
Temp PotEng KinEng TotEng Press Volume Density
299.579 348.82 322.369 671.189 -860.3 4152.28 1.58662
Loop time of 24.4904 on 1 procs for 100000 steps with 362 atoms

unfix           npt_relax

# run 100000      # 100 picoseconds
# unfix           nvt_heat
#
# run 100000      # 100 picoseconds
# unfix           npt_heat
#
# run 700000      # 700 picoseconds
# unfix           cooling_npt
#
# run 100000      # 100 picoseconds
# unfix           npt_final

# density computation
variable rho equal density
fix integrate  all npt temp 300 300 100.0 iso 0 0 500.0
fix rho50k all ave/time 10 5000 50000 v_rho mode scalar ave one
run 50000
Generated 6 of 6 mixed pair_coeff terms from arithmetic mixing rule
For more information see https://docs.lammps.org/err0027 (src/domain.cpp:1052)
Step          Temp          PotEng         KinEng         TotEng         Press          Volume        Density
200085   302.97522      341.95057      326.02328      667.97385     -4753.7322      4192.6524      1.5712976
Averages over the last 26 of 52 rows, steps 226000 to 250085:
Temp PotEng KinEng TotEng Press Volume Density
301.765 348.122 324.721 672.843 -1071.88 4170.76 1.57958
Loop time of 13.2128 on 1 procs for 50000 steps with 362 atoms

unfix integrate
unfix rho50k

# Compute initial state
fix 3 all box/relax  aniso 0.0
minimize 0 1e-10 100000 100000
Generated 6 of 6 mixed pair_coeff terms from arithmetic mixing rule
 (src/min.cpp:222)
For more information see https://docs.lammps.org/err0027 (src/domain.cpp:1052)
Step          Temp          PotEng         KinEng         TotEng         Press          Volume        Density
250085   314.05787      323.41635      337.94902      661.36537      1827.7273      4174.2169      1.5782373
Loop time of 0.0585949 on 1 procs for 23 steps with 362 atoms

Minimization stats:
  Stopping criterion = linesearch alpha is zero
  Energy initial, next-to-last, final =
  Force two-norm initial, final = 735.95209 632.08686
  Force max component initial, final = 269.9983 91.661286
  Final line search alpha, max atom move = 1.6256766e-14 1.4901161e-12
  Iterations, force evaluations = 23 212

variable tmp equal pxx
variable pxx0 equal 2626.70596013311
variable tmp equal pyy
variable pyy0 equal 4948.83339532489
variable tmp equal pzz
variable pzz0 equal 2393.70183738109
variable tmp equal pyz
variable pyz0 equal -5173.55566930994
variable tmp equal pxz
variable pxz0 equal 3326.80330932483
variable tmp equal pxy
variable pxy0 equal 2840.01517141948

variable tmp equal lx
variable lx0 equal 17.5651961314071
variable tmp equal ly
variable ly0 equal 13.168283231304
variable tmp equal lz
variable lz0 equal 18.0243402748072

# These formulas define the derivatives w.r.t. strain components
# Constants uses $, variables use v_
variable d1 equal -(v_pxx1-2626.70596013311)/(v_delta/v_len0)*0.0001
variable d2 equal -(v_pyy1-4948.83339532489)/(v_delta/v_len0)*0.0001
variable d3 equal -(v_pzz1-2393.70183738109)/(v_delta/v_len0)*0.0001
variable d4 equal -(v_pyz1--5173.55566930994)/(v_delta/v_len0)*0.0001
variable d5 equal -(v_pxz1-3326.80330932483)/(v_delta/v_len0)*0.0001
variable d6 equal -(v_pxy1-2840.01517141948)/(v_delta/v_len0)*0.0001

# Write restart
unfix 3
write_restart restart_333U-50C-1-vasp.equil
System init for write_restart ...
Generated 6 of 6 mixed pair_coeff terms from arithmetic mixing rule

# uxx Perturbation

variable dir equal 1
include ./input/displace_333U-50C-1-vasp.mod
variable len0 equal 17.5651961314071

# Reset box and simulation parameters

clear
box tilt large

The 'box' command has been removed and will be ignored

read_restart restart_333U-50C-1-vasp.equil
Reading restart file ...
  restart file = 10 Sep 2025, LAMMPS = 10 Sep 2025
  restoring atom style full from restart
  triclinic box = (-0.21174407 -0.17156862 -0.21884164) to (17.353452 12.996715 17.805499) with tilt (-8.6062176 0.031275459 0.31025181)
  restoring pair style lj/cut from restart
  restoring bond style harmonic from restart
  restoring angle style hybrid from restart
  restoring dihedral style harmonic from restart
  362 atoms
  387 bonds
  733 angles
  915 dihedrals
Finding 1-2 1-3 1-4 neighbors ...
     4 = max # of 1-2 neighbors
     8 = max # of 1-3 neighbors
    12 = max # of special neighbors
  read_restart CPU = 0.002 seconds
include ./input/angles_333U-50C-1-vasp.mod
angle_style hybrid fourier cosine/periodic
angle_coeff 1 fourier 114.246973        0.343737        0.374972        0.281246
angle_coeff 2 fourier 157.882480        0.343737        0.374972        0.281246
angle_coeff 3 fourier 221.735285        0.343737        0.374972        0.281246
angle_coeff 4 fourier 32.417871        0.343737        0.374972        0.281246
angle_coeff 5 fourier 83.380072        0.343737        0.374972        0.281246
angle_coeff 6 fourier 58.020602        0.343737        0.374972        0.281246
angle_coeff 7 fourier 90.420412        0.343737        0.374972        0.281246
angle_coeff 8 fourier 75.498766        0.343737        0.374972        0.281246
angle_coeff 9 cosine/periodic 88.853997              -1               3

# Negative deformation

variable delta equal -0.02*17.5651961314071
variable deltaxy equal -0.02*xy
variable deltaxz equal -0.02*xz
variable deltayz equal -0.02*yz
change_box all x delta 0 -0.351303922628142 xy delta 0.172124351608781 xz delta -0.000625509177583876 remap units box
Changing box ...
  triclinic box = (-0.21174407 -0.17156862 -0.21884164) to (17.002148 12.996715 17.805499) with tilt (-8.6062176 0.031275459 0.31025181)
  triclinic box = (-0.21174407 -0.17156862 -0.21884164) to (17.002148 12.996715 17.805499) with tilt (-8.4340932 0.031275459 0.31025181)
  triclinic box = (-0.21174407 -0.17156862 -0.21884164) to (17.002148 12.996715 17.805499) with tilt (-8.4340932 0.03064995 0.31025181)

# Relax atoms positions

minimize 0 1e-10 100000 100000
Generated 6 of 6 mixed pair_coeff terms from arithmetic mixing rule
For more information see https://docs.lammps.org/err0027 (src/domain.cpp:1052)
Step          Temp          E_pair         E_mol          TotEng         Press
250108   314.05787     -403.51272      752.90186      687.33816      27456.102
Loop time of 0.0342605 on 1 procs for 45 steps with 362 atoms

Minimization stats:
  Stopping criterion = linesearch alpha is zero
  Energy initial, next-to-last, final =
  Force two-norm initial, final = 626.78409 16.520358
  Force max component initial, final = 73.637089 2.346774
  Final line search alpha, max atom move = 3.4541319e-11 8.1060669e-11
  Iterations, force evaluations = 45 144

# Obtain new stress tensor

variable tmp equal pxx
variable pxx1 equal 7877.84945416893
variable tmp equal pyy
variable pyy1 equal 7020.71497393893
variable tmp equal pzz
variable pzz1 equal 2338.75524049361
variable tmp equal pxy
variable pxy1 equal -25.3074532151045
variable tmp equal pxz
variable pxz1 equal 3159.83267871787
variable tmp equal pyz
variable pyz1 equal -3346.61024334211

# Compute elastic constant from pressure tensor

variable C1neg equal 26.2557174701791
variable C2neg equal 10.3594078930702
variable C3neg equal -0.274732984437401
variable C4neg equal 9.13472712983915
variable C5neg equal -0.834853153034801
variable C6neg equal -14.3266131231729

# Reset box and simulation parameters

clear
box tilt large

The 'box' command has been removed and will be ignored

read_restart restart_333U-50C-1-vasp.equil
Reading restart file ...
  restart file = 10 Sep 2025, LAMMPS = 10 Sep 2025
  restoring atom style full from restart
  triclinic box = (-0.21174407 -0.17156862 -0.21884164) to (17.353452 12.996715 17.805499) with tilt (-8.6062176 0.031275459 0.31025181)
  restoring pair style lj/cut from restart
  restoring bond style harmonic from restart
  restoring angle style hybrid from restart
  restoring dihedral style harmonic from restart
  362 atoms
  387 bonds
  733 angles
  915 dihedrals
Finding 1-2 1-3 1-4 neighbors ...
     4 = max # of 1-2 neighbors
     8 = max # of 1-3 neighbors
    12 = max # of special neighbors
  read_restart CPU = 0.002 seconds
include ./input/angles_333U-50C-1-vasp.mod
angle_style hybrid fourier cosine/periodic
angle_coeff 1 fourier 114.246973        0.343737        0.374972        0.281246
angle_coeff 2 fourier 157.882480        0.343737        0.374972        0.281246
angle_coeff 3 fourier 221.735285        0.343737        0.374972        0.281246
angle_coeff 4 fourier 32.417871        0.343737        0.374972        0.281246
angle_coeff 5 fourier 83.380072        0.343737        0.374972        0.281246
angle_coeff 6 fourier 58.020602        0.343737        0.374972        0.281246
angle_coeff 7 fourier 90.420412        0.343737        0.374972        0.281246
angle_coeff 8 fourier 75.498766        0.343737        0.374972        0.281246
angle_coeff 9 cosine/periodic 88.853997              -1               3

# Positive deformation

variable delta equal 0.02*17.5651961314071
variable deltaxy equal 0.02*xy
variable deltaxz equal 0.02*xz
variable deltayz equal 0.02*yz
change_box all x delta 0 0.351303922628142 xy delta -0.172124351608781 xz delta 0.000625509177583876 remap units box
Changing box ...
  triclinic box = (-0.21174407 -0.17156862 -0.21884164) to (17.704756 12.996715 17.805499) with tilt (-8.6062176 0.031275459 0.31025181)
  triclinic box = (-0.21174407 -0.17156862 -0.21884164) to (17.704756 12.996715 17.805499) with tilt (-8.7783419 0.031275459 0.31025181)
  triclinic box = (-0.21174407 -0.17156862 -0.21884164) to (17.704756 12.996715 17.805499) with tilt (-8.7783419 0.031900968 0.31025181)

# Relax atoms positions

minimize 0 1e-10 100000 100000
Generated 6 of 6 mixed pair_coeff terms from arithmetic mixing rule
For more information see https://docs.lammps.org/err0027 (src/domain.cpp:1052)
Step          Temp          E_pair         E_mol          TotEng         Press
250108   314.05787     -434.84758      787.03412      690.13556     -20030.568
Loop time of 0.0315339 on 1 procs for 42 steps with 362 atoms

Minimization stats:
  Stopping criterion = linesearch alpha is zero
  Energy initial, next-to-last, final =
  Force two-norm initial, final = 649.75345 16.866619
  Force max component initial, final = 75.997972 2.3852784
  Final line search alpha, max atom move = 2.6148314e-11 6.2371009e-11
  Iterations, force evaluations = 42 138

# Obtain new stress tensor

variable tmp equal pe
variable e1 equal 31.0336500105875
variable tmp equal press
variable p1 equal -4812.68128025135
variable tmp equal pxx
variable pxx1 equal -8109.1920755594
variable tmp equal pyy
variable pyy1 equal -1679.31741865854
variable tmp equal pzz
variable pzz1 equal -4649.53434653611
variable tmp equal pxy
variable pxy1 equal 148.986958327214
variable tmp equal pxz
variable pxz1 equal 1609.44807094918
variable tmp equal pyz
variable pyz1 equal -3776.90340754418

# Compute elastic constant from pressure tensor

variable C1pos equal 53.6794901784626
variable C2pos equal 33.1407540699172
variable C3pos equal 35.216180919586
variable C4pos equal -6.9832613088288
variable C5pos equal 8.58677619187825
variable C6pos equal 13.4551410654613

# Combine positive and negative

variable C11 equal 0.5*(26.2557174701791+53.6794901784626)
variable C21 equal 0.5*(10.3594078930702+33.1407540699172)
variable C31 equal 0.5*(-0.274732984437401+35.216180919586)
variable C41 equal 0.5*(9.13472712983915+-6.9832613088288)
variable C51 equal 0.5*(-0.834853153034801+8.58677619187825)
variable C61 equal 0.5*(-14.3266131231729+13.4551410654613)

# Delete dir to make sure it is not reused

variable dir delete

# uyy Perturbation

variable dir equal 2
include ./input/displace_333U-50C-1-vasp.mod
variable len0 equal 13.168283231304

# Reset box and simulation parameters

clear
box tilt large

The 'box' command has been removed and will be ignored

read_restart restart_333U-50C-1-vasp.equil
Reading restart file ...
  restart file = 10 Sep 2025, LAMMPS = 10 Sep 2025
  restoring atom style full from restart
  triclinic box = (-0.21174407 -0.17156862 -0.21884164) to (17.353452 12.996715 17.805499) with tilt (-8.6062176 0.031275459 0.31025181)
  restoring pair style lj/cut from restart
  restoring bond style harmonic from restart
  restoring angle style hybrid from restart
  restoring dihedral style harmonic from restart
  362 atoms
  387 bonds
  733 angles
  915 dihedrals
Finding 1-2 1-3 1-4 neighbors ...
     4 = max # of 1-2 neighbors
     8 = max # of 1-3 neighbors
    12 = max # of special neighbors
  read_restart CPU = 0.001 seconds
include ./input/angles_333U-50C-1-vasp.mod
angle_style hybrid fourier cosine/periodic
angle_coeff 1 fourier 114.246973        0.343737        0.374972        0.281246
angle_coeff 2 fourier 157.882480        0.343737        0.374972        0.281246
angle_coeff 3 fourier 221.735285        0.343737        0.374972        0.281246
angle_coeff 4 fourier 32.417871        0.343737        0.374972        0.281246
angle_coeff 5 fourier 83.380072        0.343737        0.374972        0.281246
angle_coeff 6 fourier 58.020602        0.343737        0.374972        0.281246
angle_coeff 7 fourier 90.420412        0.343737        0.374972        0.281246
angle_coeff 8 fourier 75.498766        0.343737        0.374972        0.281246
angle_coeff 9 cosine/periodic 88.853997              -1               3

# Negative deformation

variable delta equal -0.02*13.168283231304
variable deltaxy equal -0.02*xy
variable deltaxz equal -0.02*xz
variable deltayz equal -0.02*yz
change_box all y delta 0 -0.26336566462608 yz delta -0.00620503628325578 remap units box
Changing box ...
  triclinic box = (-0.21174407 -0.17156862 -0.21884164) to (17.353452 12.733349 17.805499) with tilt (-8.6062176 0.031275459 0.31025181)
  triclinic box = (-0.21174407 -0.17156862 -0.21884164) to (17.353452 12.733349 17.805499) with tilt (-8.6062176 0.031275459 0.30404678)

# Relax atoms positions

minimize 0 1e-10 100000 100000
Generated 6 of 6 mixed pair_coeff terms from arithmetic mixing rule
For more information see https://docs.lammps.org/err0027 (src/domain.cpp:1052)
Step          Temp          E_pair         E_mol          TotEng         Press
250108   314.05787     -398.99755      754.36138      693.31285      28360.717
Loop time of 0.0405532 on 1 procs for 55 steps with 362 atoms

Minimization stats:
  Stopping criterion = linesearch alpha is zero
  Energy initial, next-to-last, final =
  Force two-norm initial, final = 649.3172 11.766141
  Force max component initial, final = 72.263873 1.5495541
  Final line search alpha, max atom move = 8.2074761e-11 1.2717928e-10
  Iterations, force evaluations = 55 162

# Obtain new stress tensor

variable tmp equal pxx
variable pxx1 equal 3677.56930906968
variable tmp equal pyy
variable pyy1 equal 13660.1078667789
variable tmp equal pzz
variable pzz1 equal 3756.57860370178
variable tmp equal pxy
variable pxy1 equal 176.948509953281
variable tmp equal pxz
variable pxz1 equal 3081.22332656745
variable tmp equal pyz
variable pyz1 equal -3376.51734963715

# Compute elastic constant from pressure tensor

variable C1neg equal 5.25431674468285
variable C2neg equal 43.55637235727
variable C3neg equal 6.81438383160345
variable C4neg equal 8.98519159836395
variable C5neg equal -1.2278999137869
variable C6neg equal -13.315333307331

# Reset box and simulation parameters

clear
box tilt large

The 'box' command has been removed and will be ignored

read_restart restart_333U-50C-1-vasp.equil
Reading restart file ...
  restart file = 10 Sep 2025, LAMMPS = 10 Sep 2025
  restoring atom style full from restart
  triclinic box = (-0.21174407 -0.17156862 -0.21884164) to (17.353452 12.996715 17.805499) with tilt (-8.6062176 0.031275459 0.31025181)
  restoring pair style lj/cut from restart
  restoring bond style harmonic from restart
  restoring angle style hybrid from restart
  restoring dihedral style harmonic from restart
  362 atoms
  387 bonds
  733 angles
  915 dihedrals
Finding 1-2 1-3 1-4 neighbors ...
     4 = max # of 1-2 neighbors
     8 = max # of 1-3 neighbors
    12 = max # of special neighbors
  read_restart CPU = 0.001 seconds
include ./input/angles_333U-50C-1-vasp.mod
angle_style hybrid fourier cosine/periodic
angle_coeff 1 fourier 114.246973        0.343737        0.374972        0.281246
angle_coeff 2 fourier 157.882480        0.343737        0.374972        0.281246
angle_coeff 3 fourier 221.735285        0.343737        0.374972        0.281246
angle_coeff 4 fourier 32.417871        0.343737        0.374972        0.281246
angle_coeff 5 fourier 83.380072        0.343737        0.374972        0.281246
angle_coeff 6 fourier 58.020602        0.343737        0.374972        0.281246
angle_coeff 7 fourier 90.420412        0.343737        0.374972        0.281246
angle_coeff 8 fourier 75.498766        0.343737        0.374972        0.281246
angle_coeff 9 cosine/periodic 88.853997              -1               3

# Positive deformation

variable delta equal 0.02*13.168283231304
variable deltaxy equal 0.02*xy
variable deltaxz equal 0.02*xz
variable deltayz equal 0.02*yz
change_box all y delta 0 0.26336566462608 yz delta 0.00620503628325578 remap units box
Changing box ...
  triclinic box = (-0.21174407 -0.17156862 -0.21884164) to (17.353452 13.26008 17.805499) with tilt (-8.6062176 0.031275459 0.31025181)
  triclinic box = (-0.21174407 -0.17156862 -0.21884164) to (17.353452 13.26008 17.805499) with tilt (-8.6062176 0.031275459 0.31645685)

# Relax atoms positions

minimize 0 1e-10 100000 100000
Generated 6 of 6 mixed pair_coeff terms from arithmetic mixing rule
For more information see https://docs.lammps.org/err0027 (src/domain.cpp:1052)
Step          Temp          E_pair         E_mol          TotEng         Press
250108   314.05787     -437.24778      788.02315      688.72438     -20837.231
Loop time of 0.0299799 on 1 procs for 39 steps with 362 atoms

Minimization stats:
  Stopping criterion = linesearch alpha is zero
  Energy initial, next-to-last, final =
  Force two-norm initial, final = 633.38444 17.709491
  Force max component initial, final = 70.064845 2.3670359
  Final line search alpha, max atom move = 3.4731332e-11 8.2210309e-11
  Iterations, force evaluations = 39 132

# Obtain new stress tensor

variable tmp equal pe
variable e1 equal 28.7652891312571
variable tmp equal press
variable p1 equal -6049.39260231876
variable tmp equal pxx
variable pxx1 equal -4145.27274521649
variable tmp equal pyy
variable pyy1 equal -7770.08211935301
variable tmp equal pzz
variable pzz1 equal -6232.82294238679
variable tmp equal pxy
variable pxy1 equal 98.1462380407653
variable tmp equal pxz
variable pxz1 equal 1830.90557256896
variable tmp equal pyz
variable pyz1 equal -3422.56589369621

# Compute elastic constant from pressure tensor

variable C1pos equal 33.859893526748
variable C2pos equal 63.5945775733895
variable C3pos equal 43.1326238988394
variable C4pos equal -8.75494887806865
variable C5pos equal 7.47948868377935
variable C6pos equal 13.7093446668936

# Combine positive and negative

variable C12 equal 0.5*(5.25431674468285+33.859893526748)
variable C22 equal 0.5*(43.55637235727+63.5945775733895)
variable C32 equal 0.5*(6.81438383160345+43.1326238988394)
variable C42 equal 0.5*(8.98519159836395+-8.75494887806865)
variable C52 equal 0.5*(-1.2278999137869+7.47948868377935)
variable C62 equal 0.5*(-13.315333307331+13.7093446668936)

# Delete dir to make sure it is not reused

variable dir delete

# uzz Perturbation

variable dir equal 3
include ./input/displace_333U-50C-1-vasp.mod
variable len0 equal 18.0243402748072

# Reset box and simulation parameters

clear
box tilt large

The 'box' command has been removed and will be ignored

read_restart restart_333U-50C-1-vasp.equil
Reading restart file ...
  restart file = 10 Sep 2025, LAMMPS = 10 Sep 2025
  restoring atom style full from restart
  triclinic box = (-0.21174407 -0.17156862 -0.21884164) to (17.353452 12.996715 17.805499) with tilt (-8.6062176 0.031275459 0.31025181)
  restoring pair style lj/cut from restart
  restoring bond style harmonic from restart
  restoring angle style hybrid from restart
  restoring dihedral style harmonic from restart
  362 atoms
  387 bonds
  733 angles
  915 dihedrals
Finding 1-2 1-3 1-4 neighbors ...
     4 = max # of 1-2 neighbors
     8 = max # of 1-3 neighbors
    12 = max # of special neighbors
  read_restart CPU = 0.001 seconds
include ./input/angles_333U-50C-1-vasp.mod
angle_style hybrid fourier cosine/periodic
angle_coeff 1 fourier 114.246973        0.343737        0.374972        0.281246
angle_coeff 2 fourier 157.882480        0.343737        0.374972        0.281246
angle_coeff 3 fourier 221.735285        0.343737        0.374972        0.281246
angle_coeff 4 fourier 32.417871        0.343737        0.374972        0.281246
angle_coeff 5 fourier 83.380072        0.343737        0.374972        0.281246
angle_coeff 6 fourier 58.020602        0.343737        0.374972        0.281246
angle_coeff 7 fourier 90.420412        0.343737        0.374972        0.281246
angle_coeff 8 fourier 75.498766        0.343737        0.374972        0.281246
angle_coeff 9 cosine/periodic 88.853997              -1               3

# Negative deformation

variable delta equal -0.02*18.0243402748072
variable deltaxy equal -0.02*xy
variable deltaxz equal -0.02*xz
variable deltayz equal -0.02*yz
change_box all z delta 0 -0.360486805496144 remap units box
Changing box ...
  triclinic box = (-0.21174407 -0.17156862 -0.21884164) to (17.353452 12.996715 17.445012) with tilt (-8.6062176 0.031275459 0.31025181)

# Relax atoms positions

minimize 0 1e-10 100000 100000
Generated 6 of 6 mixed pair_coeff terms from arithmetic mixing rule
For more information see https://docs.lammps.org/err0027 (src/domain.cpp:1052)
Step          Temp          E_pair         E_mol          TotEng         Press
250108   314.05787     -398.65876      748.2528       687.54305      28547.197
Loop time of 0.0252055 on 1 procs for 40 steps with 362 atoms

Minimization stats:
  Stopping criterion = linesearch alpha is zero
  Energy initial, next-to-last, final =
  Force two-norm initial, final = 626.94159 18.475124
  Force max component initial, final = 67.799095 2.4866382
  Final line search alpha, max atom move = 3.2521771e-11 8.0869878e-11
  Iterations, force evaluations = 40 134

# Obtain new stress tensor

variable tmp equal pxx
variable pxx1 equal 3231.03131590145
variable tmp equal pyy
variable pyy1 equal 8016.44845630595
variable tmp equal pzz
variable pzz1 equal 10472.9970239949
variable tmp equal pxy
variable pxy1 equal 21.3238945236748
variable tmp equal pxz
variable pxz1 equal 2257.29655044497
variable tmp equal pyz
variable pyz1 equal -2931.27062944026

# Compute elastic constant from pressure tensor

variable C1neg equal 3.0216267788417
variable C2neg equal 15.3380753049053
variable C3neg equal 40.3964759330691
variable C4neg equal 11.2114251993484
variable C5neg equal -5.3475337943993
variable C6neg equal -14.093456384479

# Reset box and simulation parameters

clear
box tilt large

The 'box' command has been removed and will be ignored

read_restart restart_333U-50C-1-vasp.equil
Reading restart file ...
  restart file = 10 Sep 2025, LAMMPS = 10 Sep 2025
  restoring atom style full from restart
  triclinic box = (-0.21174407 -0.17156862 -0.21884164) to (17.353452 12.996715 17.805499) with tilt (-8.6062176 0.031275459 0.31025181)
  restoring pair style lj/cut from restart
  restoring bond style harmonic from restart
  restoring angle style hybrid from restart
  restoring dihedral style harmonic from restart
  362 atoms
  387 bonds
  733 angles
  915 dihedrals
Finding 1-2 1-3 1-4 neighbors ...
     4 = max # of 1-2 neighbors
     8 = max # of 1-3 neighbors
    12 = max # of special neighbors
  read_restart CPU = 0.001 seconds
include ./input/angles_333U-50C-1-vasp.mod
angle_style hybrid fourier cosine/periodic
angle_coeff 1 fourier 114.246973        0.343737        0.374972        0.281246
angle_coeff 2 fourier 157.882480        0.343737        0.374972        0.281246
angle_coeff 3 fourier 221.735285        0.343737        0.374972        0.281246
angle_coeff 4 fourier 32.417871        0.343737        0.374972        0.281246
angle_coeff 5 fourier 83.380072        0.343737        0.374972        0.281246
angle_coeff 6 fourier 58.020602        0.343737        0.374972        0.281246
angle_coeff 7 fourier 90.420412        0.343737        0.374972        0.281246
angle_coeff 8 fourier 75.498766        0.343737        0.374972        0.281246
angle_coeff 9 cosine/periodic 88.853997              -1               3

# Positive deformation

variable delta equal 0.02*18.0243402748072
variable deltaxy equal 0.02*xy
variable deltaxz equal 0.02*xz
variable deltayz equal 0.02*yz
change_box all z delta 0 0.360486805496144 remap units box
Changing box ...
  triclinic box = (-0.21174407 -0.17156862 -0.21884164) to (17.353452 12.996715 18.165985) with tilt (-8.6062176 0.031275459 0.31025181)

# Relax atoms positions

minimize 0 1e-10 100000 100000
Generated 6 of 6 mixed pair_coeff terms from arithmetic mixing rule
For more information see https://docs.lammps.org/err0027 (src/domain.cpp:1052)
Step          Temp          E_pair         E_mol          TotEng         Press
250108   314.05787     -439.85885      792.17751      690.26767     -21041.134
Loop time of 0.0218093 on 1 procs for 39 steps with 362 atoms

Minimization stats:
  Stopping criterion = linesearch alpha is zero
  Energy initial, next-to-last, final =
  Force two-norm initial, final = 652.66958 17.233902
  Force max component initial, final = 74.021786 2.3430184
  Final line search alpha, max atom move = 3.1517394e-11 7.3845834e-11
  Iterations, force evaluations = 39 132

# Obtain new stress tensor

variable tmp equal pe
variable e1 equal 32.6025741698069
variable tmp equal press
variable p1 equal -5863.75246687332
variable tmp equal pxx
variable pxx1 equal -3635.90717771939
variable tmp equal pyy
variable pyy1 equal -2046.31115216573
variable tmp equal pzz
variable pzz1 equal -11909.0390707348
variable tmp equal pxy
variable pxy1 equal -233.056392451937
variable tmp equal pxz
variable pxz1 equal 2283.8289240428
variable tmp equal pyz
variable pyz1 equal -4575.98275126819

# Compute elastic constant from pressure tensor

variable C1pos equal 31.3130656892625
variable C2pos equal 34.9757227374531
variable C3pos equal 71.5137045405795
variable C4pos equal -2.98786459020875
variable C5pos equal 5.21487192641015
variable C6pos equal 15.3653578193571

# Combine positive and negative

variable C13 equal 0.5*(3.0216267788417+31.3130656892625)
variable C23 equal 0.5*(15.3380753049053+34.9757227374531)
variable C33 equal 0.5*(40.3964759330691+71.5137045405795)
variable C43 equal 0.5*(11.2114251993484+-2.98786459020875)
variable C53 equal 0.5*(-5.3475337943993+5.21487192641015)
variable C63 equal 0.5*(-14.093456384479+15.3653578193571)

# Delete dir to make sure it is not reused

variable dir delete

# uyz Perturbation

variable dir equal 4
include ./input/displace_333U-50C-1-vasp.mod
variable len0 equal 18.0243402748072

# Reset box and simulation parameters

clear
box tilt large

The 'box' command has been removed and will be ignored

read_restart restart_333U-50C-1-vasp.equil
Reading restart file ...
  restart file = 10 Sep 2025, LAMMPS = 10 Sep 2025
  restoring atom style full from restart
  triclinic box = (-0.21174407 -0.17156862 -0.21884164) to (17.353452 12.996715 17.805499) with tilt (-8.6062176 0.031275459 0.31025181)
  restoring pair style lj/cut from restart
  restoring bond style harmonic from restart
  restoring angle style hybrid from restart
  restoring dihedral style harmonic from restart
  362 atoms
  387 bonds
  733 angles
  915 dihedrals
Finding 1-2 1-3 1-4 neighbors ...
     4 = max # of 1-2 neighbors
     8 = max # of 1-3 neighbors
    12 = max # of special neighbors
  read_restart CPU = 0.001 seconds
include ./input/angles_333U-50C-1-vasp.mod
angle_style hybrid fourier cosine/periodic
angle_coeff 1 fourier 114.246973        0.343737        0.374972        0.281246
angle_coeff 2 fourier 157.882480        0.343737        0.374972        0.281246
angle_coeff 3 fourier 221.735285        0.343737        0.374972        0.281246
angle_coeff 4 fourier 32.417871        0.343737        0.374972        0.281246
angle_coeff 5 fourier 83.380072        0.343737        0.374972        0.281246
angle_coeff 6 fourier 58.020602        0.343737        0.374972        0.281246
angle_coeff 7 fourier 90.420412        0.343737        0.374972        0.281246
angle_coeff 8 fourier 75.498766        0.343737        0.374972        0.281246
angle_coeff 9 cosine/periodic 88.853997              -1               3

# Negative deformation

variable delta equal -0.02*18.0243402748072
variable deltaxy equal -0.02*xy
variable deltaxz equal -0.02*xz
variable deltayz equal -0.02*yz
change_box all yz delta -0.360486805496144 remap units box
Changing box ...
  triclinic box = (-0.21174407 -0.17156862 -0.21884164) to (17.353452 12.996715 17.805499) with tilt (-8.6062176 0.031275459 -0.050234991)

# Relax atoms positions

minimize 0 1e-10 100000 100000
Generated 6 of 6 mixed pair_coeff terms from arithmetic mixing rule
For more information see https://docs.lammps.org/err0027 (src/domain.cpp:1052)
Step          Temp          E_pair         E_mol          TotEng         Press
250108   314.05787     -421.22805      748.54398      665.26494      3115.6383
Loop time of 0.0242772 on 1 procs for 44 steps with 362 atoms

Minimization stats:
  Stopping criterion = linesearch alpha is zero
  Energy initial, next-to-last, final =
  Force two-norm initial, final = 629.9241 13.743968
  Force max component initial, final = 69.483741 1.7741514
  Final line search alpha, max atom move = 3.7745631e-11 6.6966464e-11
  Iterations, force evaluations = 44 142

# Obtain new stress tensor

variable tmp equal pxx
variable pxx1 equal -397.169239766244
variable tmp equal pyy
variable pyy1 equal 2155.93439798013
variable tmp equal pzz
variable pzz1 equal -727.338544894746
variable tmp equal pxy
variable pxy1 equal 433.334892018385
variable tmp equal pxz
variable pxz1 equal 2214.42537910725
variable tmp equal pyz
variable pyz1 equal 114.938444763383

# Compute elastic constant from pressure tensor

variable C1neg equal -15.1193759994968
variable C2neg equal -13.9644949867238
variable C3neg equal -15.6052019113792
variable C4neg equal 26.4424705703666
variable C5neg equal -5.5618896510879
variable C6neg equal -12.0334013970055

# Reset box and simulation parameters

clear
box tilt large

The 'box' command has been removed and will be ignored

read_restart restart_333U-50C-1-vasp.equil
Reading restart file ...
  restart file = 10 Sep 2025, LAMMPS = 10 Sep 2025
  restoring atom style full from restart
  triclinic box = (-0.21174407 -0.17156862 -0.21884164) to (17.353452 12.996715 17.805499) with tilt (-8.6062176 0.031275459 0.31025181)
  restoring pair style lj/cut from restart
  restoring bond style harmonic from restart
  restoring angle style hybrid from restart
  restoring dihedral style harmonic from restart
  362 atoms
  387 bonds
  733 angles
  915 dihedrals
Finding 1-2 1-3 1-4 neighbors ...
     4 = max # of 1-2 neighbors
     8 = max # of 1-3 neighbors
    12 = max # of special neighbors
  read_restart CPU = 0.001 seconds
include ./input/angles_333U-50C-1-vasp.mod
angle_style hybrid fourier cosine/periodic
angle_coeff 1 fourier 114.246973        0.343737        0.374972        0.281246
angle_coeff 2 fourier 157.882480        0.343737        0.374972        0.281246
angle_coeff 3 fourier 221.735285        0.343737        0.374972        0.281246
angle_coeff 4 fourier 32.417871        0.343737        0.374972        0.281246
angle_coeff 5 fourier 83.380072        0.343737        0.374972        0.281246
angle_coeff 6 fourier 58.020602        0.343737        0.374972        0.281246
angle_coeff 7 fourier 90.420412        0.343737        0.374972        0.281246
angle_coeff 8 fourier 75.498766        0.343737        0.374972        0.281246
angle_coeff 9 cosine/periodic 88.853997              -1               3

# Positive deformation

variable delta equal 0.02*18.0243402748072
variable deltaxy equal 0.02*xy
variable deltaxz equal 0.02*xz
variable deltayz equal 0.02*yz
change_box all yz delta 0.360486805496144 remap units box
Changing box ...
  triclinic box = (-0.21174407 -0.17156862 -0.21884164) to (17.353452 12.996715 17.805499) with tilt (-8.6062176 0.031275459 0.67073862)

# Relax atoms positions

minimize 0 1e-10 100000 100000
Generated 6 of 6 mixed pair_coeff terms from arithmetic mixing rule
For more information see https://docs.lammps.org/err0027 (src/domain.cpp:1052)
Step          Temp          E_pair         E_mol          TotEng         Press
250108   314.05787     -420.3291       760.52179      678.14171      3190.1612
Loop time of 0.0252622 on 1 procs for 46 steps with 362 atoms

Minimization stats:
  Stopping criterion = linesearch alpha is zero
  Energy initial, next-to-last, final =
  Force two-norm initial, final = 623.93626 16.21449
  Force max component initial, final = 70.548949 2.4204038
  Final line search alpha, max atom move = 3.1798526e-11 7.6965275e-11
  Iterations, force evaluations = 46 146

# Obtain new stress tensor

variable tmp equal pe
variable e1 equal 26.5462936627588
variable tmp equal press
variable p1 equal -198.055305479107
variable tmp equal pxx
variable pxx1 equal -1069.47557824477
variable tmp equal pyy
variable pyy1 equal 2432.57727719272
variable tmp equal pzz
variable pzz1 equal -1957.26761538528
variable tmp equal pxy
variable pxy1 equal -498.021264202364
variable tmp equal pxz
variable pxz1 equal 2541.32168353858
variable tmp equal pyz
variable pyz1 equal -6992.71731126341

# Compute elastic constant from pressure tensor

variable C1pos equal 18.4809076918894
variable C2pos equal 12.5812805906609
variable C3pos equal 21.7548472638319
variable C4pos equal 9.09580820976735
variable C5pos equal 3.92740812893125
variable C6pos equal 16.6901821781092

# Combine positive and negative

variable C14 equal 0.5*(-15.1193759994968+18.4809076918894)
variable C24 equal 0.5*(-13.9644949867238+12.5812805906609)
variable C34 equal 0.5*(-15.6052019113792+21.7548472638319)
variable C44 equal 0.5*(26.4424705703666+9.09580820976735)
variable C54 equal 0.5*(-5.5618896510879+3.92740812893125)
variable C64 equal 0.5*(-12.0334013970055+16.6901821781092)

# Delete dir to make sure it is not reused

variable dir delete

# uxz Perturbation

variable dir equal 5
include ./input/displace_333U-50C-1-vasp.mod
variable len0 equal 18.0243402748072

# Reset box and simulation parameters

clear
box tilt large

The 'box' command has been removed and will be ignored

read_restart restart_333U-50C-1-vasp.equil
Reading restart file ...
  restart file = 10 Sep 2025, LAMMPS = 10 Sep 2025
  restoring atom style full from restart
  triclinic box = (-0.21174407 -0.17156862 -0.21884164) to (17.353452 12.996715 17.805499) with tilt (-8.6062176 0.031275459 0.31025181)
  restoring pair style lj/cut from restart
  restoring bond style harmonic from restart
  restoring angle style hybrid from restart
  restoring dihedral style harmonic from restart
  362 atoms
  387 bonds
  733 angles
  915 dihedrals
Finding 1-2 1-3 1-4 neighbors ...
     4 = max # of 1-2 neighbors
     8 = max # of 1-3 neighbors
    12 = max # of special neighbors
  read_restart CPU = 0.001 seconds
include ./input/angles_333U-50C-1-vasp.mod
angle_style hybrid fourier cosine/periodic
angle_coeff 1 fourier 114.246973        0.343737        0.374972        0.281246
angle_coeff 2 fourier 157.882480        0.343737        0.374972        0.281246
angle_coeff 3 fourier 221.735285        0.343737        0.374972        0.281246
angle_coeff 4 fourier 32.417871        0.343737        0.374972        0.281246
angle_coeff 5 fourier 83.380072        0.343737        0.374972        0.281246
angle_coeff 6 fourier 58.020602        0.343737        0.374972        0.281246
angle_coeff 7 fourier 90.420412        0.343737        0.374972        0.281246
angle_coeff 8 fourier 75.498766        0.343737        0.374972        0.281246
angle_coeff 9 cosine/periodic 88.853997              -1               3

# Negative deformation

variable delta equal -0.02*18.0243402748072
variable deltaxy equal -0.02*xy
variable deltaxz equal -0.02*xz
variable deltayz equal -0.02*yz
change_box all xz delta -0.360486805496144 remap units box
Changing box ...
  triclinic box = (-0.21174407 -0.17156862 -0.21884164) to (17.353452 12.996715 17.805499) with tilt (-8.6062176 -0.32921135 0.31025181)

# Relax atoms positions

minimize 0 1e-10 100000 100000
Generated 6 of 6 mixed pair_coeff terms from arithmetic mixing rule
For more information see https://docs.lammps.org/err0027 (src/domain.cpp:1052)
Step          Temp          E_pair         E_mol          TotEng         Press
250108   314.05787     -420.08485      757.35138      675.21555      3518.995
Loop time of 0.0219412 on 1 procs for 36 steps with 362 atoms

Minimization stats:
  Stopping criterion = linesearch alpha is zero
  Energy initial, next-to-last, final =
  Force two-norm initial, final = 629.12753 19.96986
  Force max component initial, final = 70.037012 2.8859444
  Final line search alpha, max atom move = 3.0069996e-11 8.6780335e-11
  Iterations, force evaluations = 36 126

# Obtain new stress tensor

variable tmp equal pxx
variable pxx1 equal -238.214074296302
variable tmp equal pyy
variable pyy1 equal 3259.69153891648
variable tmp equal pzz
variable pzz1 equal -1738.21725707956
variable tmp equal pxy
variable pxy1 equal -227.157370131343
variable tmp equal pxz
variable pxz1 equal 5921.51971038787
variable tmp equal pyz
variable pyz1 equal -4098.7538957235

# Compute elastic constant from pressure tensor

variable C1neg equal -14.3246001721471
variable C2neg equal -8.44570928204205
variable C3neg equal -20.6595954723033
variable C4neg equal 5.3740088679322
variable C5neg equal 12.9735820053152
variable C6neg equal -15.3358627077541

# Reset box and simulation parameters

clear
box tilt large

The 'box' command has been removed and will be ignored

read_restart restart_333U-50C-1-vasp.equil
Reading restart file ...
  restart file = 10 Sep 2025, LAMMPS = 10 Sep 2025
  restoring atom style full from restart
  triclinic box = (-0.21174407 -0.17156862 -0.21884164) to (17.353452 12.996715 17.805499) with tilt (-8.6062176 0.031275459 0.31025181)
  restoring pair style lj/cut from restart
  restoring bond style harmonic from restart
  restoring angle style hybrid from restart
  restoring dihedral style harmonic from restart
  362 atoms
  387 bonds
  733 angles
  915 dihedrals
Finding 1-2 1-3 1-4 neighbors ...
     4 = max # of 1-2 neighbors
     8 = max # of 1-3 neighbors
    12 = max # of special neighbors
  read_restart CPU = 0.001 seconds
include ./input/angles_333U-50C-1-vasp.mod
angle_style hybrid fourier cosine/periodic
angle_coeff 1 fourier 114.246973        0.343737        0.374972        0.281246
angle_coeff 2 fourier 157.882480        0.343737        0.374972        0.281246
angle_coeff 3 fourier 221.735285        0.343737        0.374972        0.281246
angle_coeff 4 fourier 32.417871        0.343737        0.374972        0.281246
angle_coeff 5 fourier 83.380072        0.343737        0.374972        0.281246
angle_coeff 6 fourier 58.020602        0.343737        0.374972        0.281246
angle_coeff 7 fourier 90.420412        0.343737        0.374972        0.281246
angle_coeff 8 fourier 75.498766        0.343737        0.374972        0.281246
angle_coeff 9 cosine/periodic 88.853997              -1               3

# Positive deformation

variable delta equal 0.02*18.0243402748072
variable deltaxy equal 0.02*xy
variable deltaxz equal 0.02*xz
variable deltayz equal 0.02*yz
change_box all xz delta 0.360486805496144 remap units box
Changing box ...
  triclinic box = (-0.21174407 -0.17156862 -0.21884164) to (17.353452 12.996715 17.805499) with tilt (-8.6062176 0.39176226 0.31025181)

# Relax atoms positions

minimize 0 1e-10 100000 100000
Generated 6 of 6 mixed pair_coeff terms from arithmetic mixing rule
For more information see https://docs.lammps.org/err0027 (src/domain.cpp:1052)
Step          Temp          E_pair         E_mol          TotEng         Press
250108   314.05787     -421.7654       752.13593      668.31955      2755.5424
Loop time of 0.0205773 on 1 procs for 31 steps with 362 atoms

Minimization stats:
  Stopping criterion = linesearch alpha is zero
  Energy initial, next-to-last, final =
  Force two-norm initial, final = 626.31442 22.135036
  Force max component initial, final = 76.590477 2.9839944
  Final line search alpha, max atom move = 1.8154129e-11 5.417182e-11
  Iterations, force evaluations = 31 118

# Obtain new stress tensor

variable tmp equal pe
variable e1 equal 22.0065671791407
variable tmp equal press
variable p1 equal -255.62280387361
variable tmp equal pxx
variable pxx1 equal -1428.21512473191
variable tmp equal pyy
variable pyy1 equal 2417.09922643822
variable tmp equal pzz
variable pzz1 equal -1755.75251332714
variable tmp equal pxy
variable pxy1 equal -568.176057545112
variable tmp equal pxz
variable pxz1 equal -1336.88588255419
variable tmp equal pyz
variable pyz1 equal -3754.82817224822

# Compute elastic constant from pressure tensor

variable C1pos equal 20.2746054243251
variable C2pos equal 12.6586708444334
variable C3pos equal 20.7472717535412
variable C4pos equal -7.0936374853086
variable C5pos equal 23.3184459593951
variable C6pos equal 17.040956144823

# Combine positive and negative

variable C15 equal 0.5*(-14.3246001721471+20.2746054243251)
variable C25 equal 0.5*(-8.44570928204205+12.6586708444334)
variable C35 equal 0.5*(-20.6595954723033+20.7472717535412)
variable C45 equal 0.5*(5.3740088679322+-7.0936374853086)
variable C55 equal 0.5*(12.9735820053152+23.3184459593951)
variable C65 equal 0.5*(-15.3358627077541+17.040956144823)

# Delete dir to make sure it is not reused

variable dir delete

# uxy Perturbation

variable dir equal 6
include ./input/displace_333U-50C-1-vasp.mod
variable len0 equal 13.168283231304

# Reset box and simulation parameters

clear
box tilt large

The 'box' command has been removed and will be ignored

read_restart restart_333U-50C-1-vasp.equil
Reading restart file ...
  restart file = 10 Sep 2025, LAMMPS = 10 Sep 2025
  restoring atom style full from restart
  triclinic box = (-0.21174407 -0.17156862 -0.21884164) to (17.353452 12.996715 17.805499) with tilt (-8.6062176 0.031275459 0.31025181)
  restoring pair style lj/cut from restart
  restoring bond style harmonic from restart
  restoring angle style hybrid from restart
  restoring dihedral style harmonic from restart
  362 atoms
  387 bonds
  733 angles
  915 dihedrals
Finding 1-2 1-3 1-4 neighbors ...
     4 = max # of 1-2 neighbors
     8 = max # of 1-3 neighbors
    12 = max # of special neighbors
  read_restart CPU = 0.001 seconds
include ./input/angles_333U-50C-1-vasp.mod
angle_style hybrid fourier cosine/periodic
angle_coeff 1 fourier 114.246973        0.343737        0.374972        0.281246
angle_coeff 2 fourier 157.882480        0.343737        0.374972        0.281246
angle_coeff 3 fourier 221.735285        0.343737        0.374972        0.281246
angle_coeff 4 fourier 32.417871        0.343737        0.374972        0.281246
angle_coeff 5 fourier 83.380072        0.343737        0.374972        0.281246
angle_coeff 6 fourier 58.020602        0.343737        0.374972        0.281246
angle_coeff 7 fourier 90.420412        0.343737        0.374972        0.281246
angle_coeff 8 fourier 75.498766        0.343737        0.374972        0.281246
angle_coeff 9 cosine/periodic 88.853997              -1               3

# Negative deformation

variable delta equal -0.02*13.168283231304
variable deltaxy equal -0.02*xy
variable deltaxz equal -0.02*xz
variable deltayz equal -0.02*yz
change_box all xy delta -0.26336566462608 remap units box
Changing box ...
  triclinic box = (-0.21174407 -0.17156862 -0.21884164) to (17.353452 12.996715 17.805499) with tilt (-8.8695832 0.031275459 0.31025181)

# Relax atoms positions

minimize 0 1e-10 100000 100000
Generated 6 of 6 mixed pair_coeff terms from arithmetic mixing rule
For more information see https://docs.lammps.org/err0027 (src/domain.cpp:1052)
Step          Temp          E_pair         E_mol          TotEng         Press
250108   314.05787     -422.863        758.57818      673.66419      2891.0276
Loop time of 0.0243273 on 1 procs for 42 steps with 362 atoms

Minimization stats:
  Stopping criterion = linesearch alpha is zero
  Energy initial, next-to-last, final =
  Force two-norm initial, final = 635.0131 15.534771
  Force max component initial, final = 73.637498 1.8255985
  Final line search alpha, max atom move = 3.3189785e-11 6.0591222e-11
  Iterations, force evaluations = 42 138

# Obtain new stress tensor

variable tmp equal pxx
variable pxx1 equal -1014.07397568715
variable tmp equal pyy
variable pyy1 equal 2034.53880121282
variable tmp equal pzz
variable pzz1 equal -1698.76472979851
variable tmp equal pxy
variable pxy1 equal 3374.48993981961
variable tmp equal pxz
variable pxz1 equal 2336.10850200163
variable tmp equal pyz
variable pyz1 equal -3161.06107606892

# Compute elastic constant from pressure tensor

variable C1neg equal -18.2038996791013
variable C2neg equal -14.5714729705604
variable C3neg equal -20.462332835898
variable C4neg equal 10.0624729662051
variable C5neg equal -4.953474036616
variable C6neg equal 2.67237384200065

# Reset box and simulation parameters

clear
box tilt large

The 'box' command has been removed and will be ignored

read_restart restart_333U-50C-1-vasp.equil
Reading restart file ...
  restart file = 10 Sep 2025, LAMMPS = 10 Sep 2025
  restoring atom style full from restart
  triclinic box = (-0.21174407 -0.17156862 -0.21884164) to (17.353452 12.996715 17.805499) with tilt (-8.6062176 0.031275459 0.31025181)
  restoring pair style lj/cut from restart
  restoring bond style harmonic from restart
  restoring angle style hybrid from restart
  restoring dihedral style harmonic from restart
  362 atoms
  387 bonds
  733 angles
  915 dihedrals
Finding 1-2 1-3 1-4 neighbors ...
     4 = max # of 1-2 neighbors
     8 = max # of 1-3 neighbors
    12 = max # of special neighbors
  read_restart CPU = 0.001 seconds
include ./input/angles_333U-50C-1-vasp.mod
angle_style hybrid fourier cosine/periodic
angle_coeff 1 fourier 114.246973        0.343737        0.374972        0.281246
angle_coeff 2 fourier 157.882480        0.343737        0.374972        0.281246
angle_coeff 3 fourier 221.735285        0.343737        0.374972        0.281246
angle_coeff 4 fourier 32.417871        0.343737        0.374972        0.281246
angle_coeff 5 fourier 83.380072        0.343737        0.374972        0.281246
angle_coeff 6 fourier 58.020602        0.343737        0.374972        0.281246
angle_coeff 7 fourier 90.420412        0.343737        0.374972        0.281246
angle_coeff 8 fourier 75.498766        0.343737        0.374972        0.281246
angle_coeff 9 cosine/periodic 88.853997              -1               3

# Positive deformation

variable delta equal 0.02*13.168283231304
variable deltaxy equal 0.02*xy
variable deltaxz equal 0.02*xz
variable deltayz equal 0.02*yz
change_box all xy delta 0.26336566462608 remap units box
Changing box ...
  triclinic box = (-0.21174407 -0.17156862 -0.21884164) to (17.353452 12.996715 17.805499) with tilt (-8.3428519 0.031275459 0.31025181)

# Relax atoms positions

minimize 0 1e-10 100000 100000
Generated 6 of 6 mixed pair_coeff terms from arithmetic mixing rule
For more information see https://docs.lammps.org/err0027 (src/domain.cpp:1052)
Step          Temp          E_pair         E_mol          TotEng         Press
250108   314.05787     -419.47026      748.52174      667.00049      3380.0881
Loop time of 0.0281389 on 1 procs for 54 steps with 362 atoms

Minimization stats:
  Stopping criterion = linesearch alpha is zero
  Energy initial, next-to-last, final =
  Force two-norm initial, final = 619.1141 11.987066
  Force max component initial, final = 69.172717 1.8995155
  Final line search alpha, max atom move = 4.6797502e-11 8.889258e-11
  Iterations, force evaluations = 54 162

# Obtain new stress tensor

variable tmp equal pe
variable e1 equal 20.934717959565
variable tmp equal press
variable p1 equal -151.103630145178
variable tmp equal pxx
variable pxx1 equal -1051.84984889858
variable tmp equal pyy
variable pyy1 equal 2036.70838360366
variable tmp equal pzz
variable pzz1 equal -1438.16942514062
variable tmp equal pxy
variable pxy1 equal -3393.17830972583
variable tmp equal pxz
variable pxz1 equal 2320.56834111171
variable tmp equal pyz
variable pyz1 equal -3826.69691177998

# Compute elastic constant from pressure tensor

variable C1pos equal 18.3927790451585
variable C2pos equal 14.5606250586062
variable C3pos equal 19.1593563126086
variable C4pos equal -6.7342937876498
variable C5pos equal 5.0311748410656
variable C6pos equal 31.1659674057266

# Combine positive and negative

variable C16 equal 0.5*(-18.2038996791013+18.3927790451585)
variable C26 equal 0.5*(-14.5714729705604+14.5606250586062)
variable C36 equal 0.5*(-20.462332835898+19.1593563126086)
variable C46 equal 0.5*(10.0624729662051+-6.7342937876498)
variable C56 equal 0.5*(-4.953474036616+5.0311748410656)
variable C66 equal 0.5*(2.67237384200065+31.1659674057266)

# Delete dir to make sure it is not reused

variable dir delete

# Output final values

variable C11all equal 39.9676038243208
variable C22all equal 53.5754749653297
variable C33all equal 55.9550902368243

variable C12all equal 0.5*(19.5571051357154+21.7500809814937)
variable C13all equal 0.5*(17.1673462340521+17.4707239675743)
variable C23all equal 0.5*(25.1568990211792+24.9735038652214)

variable C44all equal 17.769139390067
variable C55all equal 18.1460139823552
variable C66all equal 16.9191706238636

variable C14all equal 0.5*(1.6807658461963+1.07573291050518)
variable C15all equal 0.5*(2.975002626089+3.87596151942172)
variable C16all equal 0.5*(0.0944396830285985+-0.4357360288558)

variable C24all equal 0.5*(-0.69160719803145+0.115121360147651)
variable C25all equal 0.5*(2.10648078119568+3.12579438499623)
variable C26all equal 0.5*(-0.00542395597709966+0.1970056797813)

variable C34all equal 0.5*(3.07482267622635+4.11178030456982)
variable C35all equal 0.5*(0.0438381406189485+-0.0663309339945752)
variable C36all equal 0.5*(-0.651488261644699+0.635950717439051)

variable C45all equal 0.5*(-0.8598143086882+-0.817240761078325)
variable C46all equal 0.5*(1.66408958927765+2.32839039055185)
variable C56all equal 0.5*(0.0388504022248002+0.85254671853445)

# Average moduli for cubic crystals

variable C11cubic equal (39.9676038243208+53.5754749653297+55.9550902368243)/3.0
variable C12cubic equal (20.6535930586045+17.3190351008132+25.0652014432003)/3.0
variable C44cubic equal (17.769139390067+18.1460139823552+16.9191706238636)/3.0

variable bulkmodulus equal (49.8327230088249+2*21.0126098675393)/3.0
variable shearmodulus1 equal 17.6114413320953
variable shearmodulus2 equal (49.8327230088249-21.0126098675393)/2.0
variable poissonratio equal 1.0/(1.0+49.8327230088249/21.0126098675393)

Elastic Constant 1 1 = 39.9676038243208
Elastic Constant 2 2 = 53.5754749653297
Elastic Constant 3 3 = 55.9550902368243

Elastic Constant 1 2 = 20.6535930586045
Elastic Constant 1 3 = 17.3190351008132
Elastic Constant 2 3 = 25.0652014432003

Elastic Constant 4 4 = 17.769139390067
Elastic Constant 5 5 = 18.1460139823552
Elastic Constant 6 6 = 16.9191706238636

Elastic Constant 1 4 = 1.37824937835074
Elastic Constant 1 5 = 3.42548207275536
Elastic Constant 1 6 = -0.170648172913601

Elastic Constant 2 4 = -0.2882429189419
Elastic Constant 2 5 = 2.61613758309595
Elastic Constant 2 6 = 0.0957908619021002

Elastic Constant 3 4 = 3.59330149039809
Elastic Constant 3 5 = -0.0112463966878133
Elastic Constant 3 6 = -0.00776877210282401

Elastic Constant 4 5 = -0.838527534883262
Elastic Constant 4 6 = 1.99623998991475
Elastic Constant 5 6 = 0.445698560379625

Bulk Modulus = 30.6193142479678 GPa
Shear Modulus 1 = 17.6114413320953 GPa
Shear Modulus 2 = 14.4100565706428 GPa
Poisson Ratio = 0.296598364555778

variable rho equal density
density (g/cm^3) = 1.58017710310974
