units           real
atom_style      full
boundary        p p p

pair_style      lj/cut 5.000
bond_style      harmonic
angle_style     hybrid fourier cosine/periodic
dihedral_style  harmonic

special_bonds   lj/coul 0.0 0.0 1.0
dielectric      1.0
pair_modify     tail yes mix arithmetic
box tilt        large

The 'box' command has been removed and will be ignored

read_data       ./dat/data.333-EXP-27-vasp
Reading data file ...
  triclinic box = (0 0 0) to (15.144723 13.028305 16.498013) with tilt (-7.69741 -0.636627 0.58048)
  reading atoms ...
  295 atoms
  scanning bonds ...
  scanning angles ...
  scanning dihedrals ...
  triclinic box = (0 0 0) to (15.144723 13.028305 16.498013) with tilt (-7.69741 -0.636627 0.58048)
  reading bonds ...
  315 bonds
  reading angles ...
  599 angles
  reading dihedrals ...
  759 dihedrals
Finding 1-2 1-3 1-4 neighbors ...
     4 = max # of 1-2 neighbors
     8 = max # of 1-3 neighbors
    12 = max # of special neighbors

#### Atom Groupings ####
group           fram     id   1:295
295 atoms in group fram
#### END Atom Groupings ####

compute am all property/atom mass
dump        atom_pos all extxyz 100 ./output/333-EXP-27-vasp.lammpstrj
dump_modify atom_pos element Si C O H mass yes
thermo          1000
thermo_style    custom step temp pe ke etotal press vol density

variable up equal 2e-2
variable cfac equal 1.0e-4
variable cunits string GPa

# Define minimization parameters
variable etol equal 0.0
variable ftol equal 1.0e-10
variable maxiter equal 100000
variable maxeval equal 100000
variable dmax equal 1.0e-2

variable temp equal 300.0
variable thermal_damp index 100.0
variable pressure_damp index 500.0

fix relax all box/relax aniso 0.0 vmax 0.001
unfix relax
minimize 0 1e-10 100000 100000
Generated 6 of 6 mixed pair_coeff terms from arithmetic mixing rule
For more information see https://docs.lammps.org/err0027 (src/domain.cpp:1052)
Step          Temp          PotEng         KinEng         TotEng         Press          Volume        Density
0   0              881.89798      0              881.89798      80050.316      3255.2241      1.6067572
Loop time of 0.0633715 on 1 procs for 115 steps with 295 atoms

Minimization stats:
  Stopping criterion = linesearch alpha is zero
  Energy initial, next-to-last, final =
  Force two-norm initial, final = 731.56757 22.693629
  Force max component initial, final = 92.004632 2.9728984
  Final line search alpha, max atom move = 2.1528764e-11 6.4002828e-11
  Iterations, force evaluations = 115 288

# Generating the full routine as described in the paper for UFF
fix nvt_relax   all nvt temp 300 300 100.0
run 100000      # 100 picoseconds
Generated 6 of 6 mixed pair_coeff terms from arithmetic mixing rule
For more information see https://docs.lammps.org/err0027 (src/domain.cpp:1052)
Step          Temp          PotEng         KinEng         TotEng         Press          Volume        Density
115   0             -76.168447      0             -76.168447      6958.1783      3255.2241      1.6067572
Averages over the last 51 of 102 rows, steps 51000 to 100115:
Temp PotEng KinEng TotEng Press Volume Density
300.211 157.209 263.093 420.302 8198.15 3255.22 1.60676
Loop time of 18.415 on 1 procs for 100000 steps with 295 atoms

unfix           nvt_relax

fix npt_relax   all npt temp 300 300 100.0 iso 0 0 500.0
run 100000      # 100 picoseconds
Generated 6 of 6 mixed pair_coeff terms from arithmetic mixing rule
For more information see https://docs.lammps.org/err0027 (src/domain.cpp:1052)
Step          Temp          PotEng         KinEng         TotEng         Press          Volume        Density
100115   304.75851      150.19089      267.0776       417.26849      11136.804      3255.2241      1.6067572
Averages over the last 51 of 102 rows, steps 151000 to 200115:
Temp PotEng KinEng TotEng Press Volume Density
302.728 152.615 265.298 417.913 -96.9823 3415.43 1.53172
Loop time of 21.0768 on 1 procs for 100000 steps with 295 atoms

unfix           npt_relax

# run 100000      # 100 picoseconds
# unfix           nvt_heat
#
# run 100000      # 100 picoseconds
# unfix           npt_heat
#
# run 700000      # 700 picoseconds
# unfix           cooling_npt
#
# run 100000      # 100 picoseconds
# unfix           npt_final

# density computation
variable rho equal density
fix integrate  all npt temp 300 300 100.0 iso 0 0 500.0
fix rho50k all ave/time 10 5000 50000 v_rho mode scalar ave one
run 50000
Generated 6 of 6 mixed pair_coeff terms from arithmetic mixing rule
For more information see https://docs.lammps.org/err0027 (src/domain.cpp:1052)
Step          Temp          PotEng         KinEng         TotEng         Press          Volume        Density
200115   334.49904      136.93166      293.14096      430.07262     -3989.6461      3476.9339      1.5043009
Averages over the last 26 of 52 rows, steps 226000 to 250115:
Temp PotEng KinEng TotEng Press Volume Density
298.523 144.177 261.613 405.79 -609.906 3465 1.50954
Loop time of 10.1884 on 1 procs for 50000 steps with 295 atoms

unfix integrate
unfix rho50k

# Compute initial state
fix 3 all box/relax  aniso 0.0
minimize 0 1e-10 100000 100000
Generated 6 of 6 mixed pair_coeff terms from arithmetic mixing rule
 (src/min.cpp:222)
For more information see https://docs.lammps.org/err0027 (src/domain.cpp:1052)
Step          Temp          PotEng         KinEng         TotEng         Press          Volume        Density
250115   311.28685      146.32365      272.79877      419.12242     -3812.8448      3514.8353      1.4880796
Loop time of 0.0383245 on 1 procs for 200 steps with 295 atoms

Minimization stats:
  Stopping criterion = linesearch alpha is zero
  Energy initial, next-to-last, final =
  Force two-norm initial, final = 915.55926 111.30022
  Force max component initial, final = 562.55112 17.013143
  Final line search alpha, max atom move = 7.0484616e-13 1.1991648e-11
  Iterations, force evaluations = 200 227

variable tmp equal pxx
variable pxx0 equal 3178.33653635762
variable tmp equal pyy
variable pyy0 equal 3273.58430069716
variable tmp equal pzz
variable pzz0 equal 3331.33599212639
variable tmp equal pyz
variable pyz0 equal 744.636112941383
variable tmp equal pxz
variable pxz0 equal 838.412647066323
variable tmp equal pxy
variable pxy0 equal 4856.36229277997

variable tmp equal lx
variable lx0 equal 15.4297291532954
variable tmp equal ly
variable ly0 equal 13.3609795753377
variable tmp equal lz
variable lz0 equal 16.9057879317147

# These formulas define the derivatives w.r.t. strain components
# Constants uses $, variables use v_
variable d1 equal -(v_pxx1-3178.33653635762)/(v_delta/v_len0)*0.0001
variable d2 equal -(v_pyy1-3273.58430069716)/(v_delta/v_len0)*0.0001
variable d3 equal -(v_pzz1-3331.33599212639)/(v_delta/v_len0)*0.0001
variable d4 equal -(v_pyz1-744.636112941383)/(v_delta/v_len0)*0.0001
variable d5 equal -(v_pxz1-838.412647066323)/(v_delta/v_len0)*0.0001
variable d6 equal -(v_pxy1-4856.36229277997)/(v_delta/v_len0)*0.0001

# Write restart
unfix 3
write_restart restart_333-EXP-27-vasp.equil
System init for write_restart ...
Generated 6 of 6 mixed pair_coeff terms from arithmetic mixing rule

# uxx Perturbation

variable dir equal 1
include ./input/displace_333-EXP-27-vasp.mod
variable len0 equal 15.4297291532954

# Reset box and simulation parameters

clear
box tilt large

The 'box' command has been removed and will be ignored

read_restart restart_333-EXP-27-vasp.equil
Reading restart file ...
  restart file = 10 Sep 2025, LAMMPS = 10 Sep 2025
  restoring atom style full from restart
  triclinic box = (-0.14250308 -0.16633729 -0.20388747) to (15.287226 13.194642 16.7019) with tilt (-7.8939615 -0.65236226 0.5948275)
  restoring pair style lj/cut from restart
  restoring bond style harmonic from restart
  restoring angle style hybrid from restart
  restoring dihedral style harmonic from restart
  295 atoms
  315 bonds
  599 angles
  759 dihedrals
Finding 1-2 1-3 1-4 neighbors ...
     4 = max # of 1-2 neighbors
     8 = max # of 1-3 neighbors
    12 = max # of special neighbors
  read_restart CPU = 0.002 seconds
include ./input/angles_333-EXP-27-vasp.mod
angle_style hybrid fourier cosine/periodic
angle_coeff 1 fourier 157.882480        0.343737        0.374972        0.281246
angle_coeff 2 fourier 221.735285        0.343737        0.374972        0.281246
angle_coeff 3 fourier 83.380072        0.343737        0.374972        0.281246
angle_coeff 4 fourier 58.020602        0.343737        0.374972        0.281246
angle_coeff 5 fourier 114.246973        0.343737        0.374972        0.281246
angle_coeff 6 fourier 32.417871        0.343737        0.374972        0.281246
angle_coeff 7 fourier 90.420412        0.343737        0.374972        0.281246
angle_coeff 8 fourier 75.498766        0.343737        0.374972        0.281246
angle_coeff 9 cosine/periodic 88.853997              -1               3

# Negative deformation

variable delta equal -0.02*15.4297291532954
variable deltaxy equal -0.02*xy
variable deltaxz equal -0.02*xz
variable deltayz equal -0.02*yz
change_box all x delta 0 -0.308594583065908 xy delta 0.157879229559021 xz delta 0.0130472452089884 remap units box
Changing box ...
  triclinic box = (-0.14250308 -0.16633729 -0.20388747) to (14.978631 13.194642 16.7019) with tilt (-7.8939615 -0.65236226 0.5948275)
  triclinic box = (-0.14250308 -0.16633729 -0.20388747) to (14.978631 13.194642 16.7019) with tilt (-7.7360822 -0.65236226 0.5948275)
  triclinic box = (-0.14250308 -0.16633729 -0.20388747) to (14.978631 13.194642 16.7019) with tilt (-7.7360822 -0.63931502 0.5948275)

# Relax atoms positions

minimize 0 1e-10 100000 100000
Generated 6 of 6 mixed pair_coeff terms from arithmetic mixing rule
For more information see https://docs.lammps.org/err0027 (src/domain.cpp:1052)
Step          Temp          E_pair         E_mol          TotEng         Press
250315   311.28685     -359.51327      342.89074      256.17624      26518.902
Loop time of 0.018602 on 1 procs for 36 steps with 295 atoms

Minimization stats:
  Stopping criterion = linesearch alpha is zero
  Energy initial, next-to-last, final =
  Force two-norm initial, final = 198.12707 17.1338
  Force max component initial, final = 22.632649 2.2191953
  Final line search alpha, max atom move = 3.7479004e-11 8.3173231e-11
  Iterations, force evaluations = 36 127

# Obtain new stress tensor

variable tmp equal pxx
variable pxx1 equal 4942.59277614013
variable tmp equal pyy
variable pyy1 equal 4485.43787984036
variable tmp equal pzz
variable pzz1 equal 4581.96738441407
variable tmp equal pxy
variable pxy1 equal 2106.37696521135
variable tmp equal pxz
variable pxz1 equal 3183.00981685278
variable tmp equal pyz
variable pyz1 equal 4386.2144450071

# Compute elastic constant from pressure tensor

variable C1neg equal 8.82128119891255
variable C2neg equal 6.059267895716
variable C3neg equal 6.2531569614384
variable C4neg equal 18.2078916603286
variable C5neg equal 11.7229858489323
variable C6neg equal -13.7499266378431

# Reset box and simulation parameters

clear
box tilt large

The 'box' command has been removed and will be ignored

read_restart restart_333-EXP-27-vasp.equil
Reading restart file ...
  restart file = 10 Sep 2025, LAMMPS = 10 Sep 2025
  restoring atom style full from restart
  triclinic box = (-0.14250308 -0.16633729 -0.20388747) to (15.287226 13.194642 16.7019) with tilt (-7.8939615 -0.65236226 0.5948275)
  restoring pair style lj/cut from restart
  restoring bond style harmonic from restart
  restoring angle style hybrid from restart
  restoring dihedral style harmonic from restart
  295 atoms
  315 bonds
  599 angles
  759 dihedrals
Finding 1-2 1-3 1-4 neighbors ...
     4 = max # of 1-2 neighbors
     8 = max # of 1-3 neighbors
    12 = max # of special neighbors
  read_restart CPU = 0.002 seconds
include ./input/angles_333-EXP-27-vasp.mod
angle_style hybrid fourier cosine/periodic
angle_coeff 1 fourier 157.882480        0.343737        0.374972        0.281246
angle_coeff 2 fourier 221.735285        0.343737        0.374972        0.281246
angle_coeff 3 fourier 83.380072        0.343737        0.374972        0.281246
angle_coeff 4 fourier 58.020602        0.343737        0.374972        0.281246
angle_coeff 5 fourier 114.246973        0.343737        0.374972        0.281246
angle_coeff 6 fourier 32.417871        0.343737        0.374972        0.281246
angle_coeff 7 fourier 90.420412        0.343737        0.374972        0.281246
angle_coeff 8 fourier 75.498766        0.343737        0.374972        0.281246
angle_coeff 9 cosine/periodic 88.853997              -1               3

# Positive deformation

variable delta equal 0.02*15.4297291532954
variable deltaxy equal 0.02*xy
variable deltaxz equal 0.02*xz
variable deltayz equal 0.02*yz
change_box all x delta 0 0.308594583065908 xy delta -0.157879229559021 xz delta -0.0130472452089884 remap units box
Changing box ...
  triclinic box = (-0.14250308 -0.16633729 -0.20388747) to (15.595821 13.194642 16.7019) with tilt (-7.8939615 -0.65236226 0.5948275)
  triclinic box = (-0.14250308 -0.16633729 -0.20388747) to (15.595821 13.194642 16.7019) with tilt (-8.0518407 -0.65236226 0.5948275)
  triclinic box = (-0.14250308 -0.16633729 -0.20388747) to (15.595821 13.194642 16.7019) with tilt (-8.0518407 -0.66540951 0.5948275)

# Relax atoms positions

minimize 0 1e-10 100000 100000
Generated 6 of 6 mixed pair_coeff terms from arithmetic mixing rule
For more information see https://docs.lammps.org/err0027 (src/domain.cpp:1052)
Step          Temp          E_pair         E_mol          TotEng         Press
250315   311.28685     -375.1564       359.16797      256.81035     -19368.071
Loop time of 0.0189256 on 1 procs for 37 steps with 295 atoms

Minimization stats:
  Stopping criterion = linesearch alpha is zero
  Energy initial, next-to-last, final =
  Force two-norm initial, final = 184.30345 17.867893
  Force max component initial, final = 23.600851 2.8726242
  Final line search alpha, max atom move = 2.2048109e-11 6.3335932e-11
  Iterations, force evaluations = 37 130

# Obtain new stress tensor

variable tmp equal pe
variable e1 equal -109.919478033045
variable tmp equal press
variable p1 equal -4954.55367976269
variable tmp equal pxx
variable pxx1 equal -11580.7653038259
variable tmp equal pyy
variable pyy1 equal -874.126000885984
variable tmp equal pzz
variable pzz1 equal -2408.76973457617
variable tmp equal pxy
variable pxy1 equal 3408.95402572916
variable tmp equal pxz
variable pxz1 equal 2700.35709249455
variable tmp equal pyz
variable pyz1 equal 2607.88779363035

# Compute elastic constant from pressure tensor

variable C1pos equal 73.7955092009176
variable C2pos equal 20.7385515079157
variable C3pos equal 28.7005286335128
variable C4pos equal -9.31625840344484
variable C5pos equal -9.30972222714114
variable C6pos equal 7.23704133525405

# Combine positive and negative

variable C11 equal 0.5*(8.82128119891255+73.7955092009176)
variable C21 equal 0.5*(6.059267895716+20.7385515079157)
variable C31 equal 0.5*(6.2531569614384+28.7005286335128)
variable C41 equal 0.5*(18.2078916603286+-9.31625840344484)
variable C51 equal 0.5*(11.7229858489323+-9.30972222714114)
variable C61 equal 0.5*(-13.7499266378431+7.23704133525405)

# Delete dir to make sure it is not reused

variable dir delete

# uyy Perturbation

variable dir equal 2
include ./input/displace_333-EXP-27-vasp.mod
variable len0 equal 13.3609795753377

# Reset box and simulation parameters

clear
box tilt large

The 'box' command has been removed and will be ignored

read_restart restart_333-EXP-27-vasp.equil
Reading restart file ...
  restart file = 10 Sep 2025, LAMMPS = 10 Sep 2025
  restoring atom style full from restart
  triclinic box = (-0.14250308 -0.16633729 -0.20388747) to (15.287226 13.194642 16.7019) with tilt (-7.8939615 -0.65236226 0.5948275)
  restoring pair style lj/cut from restart
  restoring bond style harmonic from restart
  restoring angle style hybrid from restart
  restoring dihedral style harmonic from restart
  295 atoms
  315 bonds
  599 angles
  759 dihedrals
Finding 1-2 1-3 1-4 neighbors ...
     4 = max # of 1-2 neighbors
     8 = max # of 1-3 neighbors
    12 = max # of special neighbors
  read_restart CPU = 0.001 seconds
include ./input/angles_333-EXP-27-vasp.mod
angle_style hybrid fourier cosine/periodic
angle_coeff 1 fourier 157.882480        0.343737        0.374972        0.281246
angle_coeff 2 fourier 221.735285        0.343737        0.374972        0.281246
angle_coeff 3 fourier 83.380072        0.343737        0.374972        0.281246
angle_coeff 4 fourier 58.020602        0.343737        0.374972        0.281246
angle_coeff 5 fourier 114.246973        0.343737        0.374972        0.281246
angle_coeff 6 fourier 32.417871        0.343737        0.374972        0.281246
angle_coeff 7 fourier 90.420412        0.343737        0.374972        0.281246
angle_coeff 8 fourier 75.498766        0.343737        0.374972        0.281246
angle_coeff 9 cosine/periodic 88.853997              -1               3

# Negative deformation

variable delta equal -0.02*13.3609795753377
variable deltaxy equal -0.02*xy
variable deltaxz equal -0.02*xz
variable deltayz equal -0.02*yz
change_box all y delta 0 -0.267219591506754 yz delta -0.0118965499404107 remap units box
Changing box ...
  triclinic box = (-0.14250308 -0.16633729 -0.20388747) to (15.287226 12.927423 16.7019) with tilt (-7.8939615 -0.65236226 0.5948275)
  triclinic box = (-0.14250308 -0.16633729 -0.20388747) to (15.287226 12.927423 16.7019) with tilt (-7.8939615 -0.65236226 0.58293095)

# Relax atoms positions

minimize 0 1e-10 100000 100000
Generated 6 of 6 mixed pair_coeff terms from arithmetic mixing rule
For more information see https://docs.lammps.org/err0027 (src/domain.cpp:1052)
Step          Temp          E_pair         E_mol          TotEng         Press
250315   311.28685     -358.7231       340.54119      254.61686      25983.85
Loop time of 0.018674 on 1 procs for 37 steps with 295 atoms

Minimization stats:
  Stopping criterion = linesearch alpha is zero
  Energy initial, next-to-last, final =
  Force two-norm initial, final = 187.76958 16.678098
  Force max component initial, final = 21.829383 2.354748
  Final line search alpha, max atom move = 2.4124116e-11 5.6806213e-11
  Iterations, force evaluations = 37 130

# Obtain new stress tensor

variable tmp equal pxx
variable pxx1 equal -691.017261679754
variable tmp equal pyy
variable pyy1 equal 8674.02097593925
variable tmp equal pzz
variable pzz1 equal 4151.91664364196
variable tmp equal pxy
variable pxy1 equal 1210.25011793424
variable tmp equal pxz
variable pxz1 equal 3175.05957552305
variable tmp equal pyz
variable pyz1 equal 4481.55231585029

# Compute elastic constant from pressure tensor

variable C1neg equal -19.3467689901869
variable C2neg equal 27.0021833762104
variable C3neg equal 4.10290325757785
variable C4neg equal 18.6845810145445
variable C5neg equal 11.6832346422836
variable C6neg equal -18.2305608742286

# Reset box and simulation parameters

clear
box tilt large

The 'box' command has been removed and will be ignored

read_restart restart_333-EXP-27-vasp.equil
Reading restart file ...
  restart file = 10 Sep 2025, LAMMPS = 10 Sep 2025
  restoring atom style full from restart
  triclinic box = (-0.14250308 -0.16633729 -0.20388747) to (15.287226 13.194642 16.7019) with tilt (-7.8939615 -0.65236226 0.5948275)
  restoring pair style lj/cut from restart
  restoring bond style harmonic from restart
  restoring angle style hybrid from restart
  restoring dihedral style harmonic from restart
  295 atoms
  315 bonds
  599 angles
  759 dihedrals
Finding 1-2 1-3 1-4 neighbors ...
     4 = max # of 1-2 neighbors
     8 = max # of 1-3 neighbors
    12 = max # of special neighbors
  read_restart CPU = 0.001 seconds
include ./input/angles_333-EXP-27-vasp.mod
angle_style hybrid fourier cosine/periodic
angle_coeff 1 fourier 157.882480        0.343737        0.374972        0.281246
angle_coeff 2 fourier 221.735285        0.343737        0.374972        0.281246
angle_coeff 3 fourier 83.380072        0.343737        0.374972        0.281246
angle_coeff 4 fourier 58.020602        0.343737        0.374972        0.281246
angle_coeff 5 fourier 114.246973        0.343737        0.374972        0.281246
angle_coeff 6 fourier 32.417871        0.343737        0.374972        0.281246
angle_coeff 7 fourier 90.420412        0.343737        0.374972        0.281246
angle_coeff 8 fourier 75.498766        0.343737        0.374972        0.281246
angle_coeff 9 cosine/periodic 88.853997              -1               3

# Positive deformation

variable delta equal 0.02*13.3609795753377
variable deltaxy equal 0.02*xy
variable deltaxz equal 0.02*xz
variable deltayz equal 0.02*yz
change_box all y delta 0 0.267219591506754 yz delta 0.0118965499404107 remap units box
Changing box ...
  triclinic box = (-0.14250308 -0.16633729 -0.20388747) to (15.287226 13.461862 16.7019) with tilt (-7.8939615 -0.65236226 0.5948275)
  triclinic box = (-0.14250308 -0.16633729 -0.20388747) to (15.287226 13.461862 16.7019) with tilt (-7.8939615 -0.65236226 0.60672405)

# Relax atoms positions

minimize 0 1e-10 100000 100000
Generated 6 of 6 mixed pair_coeff terms from arithmetic mixing rule
For more information see https://docs.lammps.org/err0027 (src/domain.cpp:1052)
Step          Temp          E_pair         E_mol          TotEng         Press
250315   311.28685     -376.60074      359.03974      255.23776     -18832.668
Loop time of 0.0165256 on 1 procs for 32 steps with 295 atoms

Minimization stats:
  Stopping criterion = linesearch alpha is zero
  Energy initial, next-to-last, final =
  Force two-norm initial, final = 185.00412 18.21029
  Force max component initial, final = 21.96489 2.6168052
  Final line search alpha, max atom move = 2.2695784e-11 5.9390445e-11
  Iterations, force evaluations = 32 120

# Obtain new stress tensor

variable tmp equal pe
variable e1 equal -113.090993264961
variable tmp equal press
variable p1 equal -4366.46516588776
variable tmp equal pxx
variable pxx1 equal -5958.61315320578
variable tmp equal pyy
variable pyy1 equal -4961.40073029975
variable tmp equal pzz
variable pzz1 equal -2179.38161415776
variable tmp equal pxy
variable pxy1 equal 4015.37110718353
variable tmp equal pxz
variable pxz1 equal 2384.43891927434
variable tmp equal pyz
variable pyz1 equal 2588.80358479993

# Compute elastic constant from pressure tensor

variable C1pos equal 45.684748447817
variable C2pos equal 41.1749251549845
variable C3pos equal 27.5535880314208
variable C4pos equal -9.22083735929273
variable C5pos equal -7.73013136104009
variable C6pos equal 4.2049559279822

# Combine positive and negative

variable C12 equal 0.5*(-19.3467689901869+45.684748447817)
variable C22 equal 0.5*(27.0021833762104+41.1749251549845)
variable C32 equal 0.5*(4.10290325757785+27.5535880314208)
variable C42 equal 0.5*(18.6845810145445+-9.22083735929273)
variable C52 equal 0.5*(11.6832346422836+-7.73013136104009)
variable C62 equal 0.5*(-18.2305608742286+4.2049559279822)

# Delete dir to make sure it is not reused

variable dir delete

# uzz Perturbation

variable dir equal 3
include ./input/displace_333-EXP-27-vasp.mod
variable len0 equal 16.9057879317147

# Reset box and simulation parameters

clear
box tilt large

The 'box' command has been removed and will be ignored

read_restart restart_333-EXP-27-vasp.equil
Reading restart file ...
  restart file = 10 Sep 2025, LAMMPS = 10 Sep 2025
  restoring atom style full from restart
  triclinic box = (-0.14250308 -0.16633729 -0.20388747) to (15.287226 13.194642 16.7019) with tilt (-7.8939615 -0.65236226 0.5948275)
  restoring pair style lj/cut from restart
  restoring bond style harmonic from restart
  restoring angle style hybrid from restart
  restoring dihedral style harmonic from restart
  295 atoms
  315 bonds
  599 angles
  759 dihedrals
Finding 1-2 1-3 1-4 neighbors ...
     4 = max # of 1-2 neighbors
     8 = max # of 1-3 neighbors
    12 = max # of special neighbors
  read_restart CPU = 0.001 seconds
include ./input/angles_333-EXP-27-vasp.mod
angle_style hybrid fourier cosine/periodic
angle_coeff 1 fourier 157.882480        0.343737        0.374972        0.281246
angle_coeff 2 fourier 221.735285        0.343737        0.374972        0.281246
angle_coeff 3 fourier 83.380072        0.343737        0.374972        0.281246
angle_coeff 4 fourier 58.020602        0.343737        0.374972        0.281246
angle_coeff 5 fourier 114.246973        0.343737        0.374972        0.281246
angle_coeff 6 fourier 32.417871        0.343737        0.374972        0.281246
angle_coeff 7 fourier 90.420412        0.343737        0.374972        0.281246
angle_coeff 8 fourier 75.498766        0.343737        0.374972        0.281246
angle_coeff 9 cosine/periodic 88.853997              -1               3

# Negative deformation

variable delta equal -0.02*16.9057879317147
variable deltaxy equal -0.02*xy
variable deltaxz equal -0.02*xz
variable deltayz equal -0.02*yz
change_box all z delta 0 -0.338115758634294 remap units box
Changing box ...
  triclinic box = (-0.14250308 -0.16633729 -0.20388747) to (15.287226 13.194642 16.363785) with tilt (-7.8939615 -0.65236226 0.5948275)

# Relax atoms positions

minimize 0 1e-10 100000 100000
Generated 6 of 6 mixed pair_coeff terms from arithmetic mixing rule
For more information see https://docs.lammps.org/err0027 (src/domain.cpp:1052)
Step          Temp          E_pair         E_mol          TotEng         Press
250315   311.28685     -357.45378      340.89327      256.23826      26543.543
Loop time of 0.0189424 on 1 procs for 39 steps with 295 atoms

Minimization stats:
  Stopping criterion = linesearch alpha is zero
  Energy initial, next-to-last, final =
  Force two-norm initial, final = 193.13304 14.97479
  Force max component initial, final = 23.295568 1.8616586
  Final line search alpha, max atom move = 5.5029455e-11 1.0244606e-10
  Iterations, force evaluations = 39 132

# Obtain new stress tensor

variable tmp equal pxx
variable pxx1 equal 192.934986280905
variable tmp equal pyy
variable pyy1 equal 4826.43902868391
variable tmp equal pzz
variable pzz1 equal 10362.9037439942
variable tmp equal pxy
variable pxy1 equal 2372.96439878359
variable tmp equal pxz
variable pxz1 equal 2681.41012015729
variable tmp equal pyz
variable pyz1 equal 4898.59859048385

# Compute elastic constant from pressure tensor

variable C1neg equal -14.9270077503836
variable C2neg equal 7.76427363993375
variable C3neg equal 35.1578387593391
variable C4neg equal 20.7698123877123
variable C5neg equal 9.21498736545484
variable C6neg equal -12.4169894699819

# Reset box and simulation parameters

clear
box tilt large

The 'box' command has been removed and will be ignored

read_restart restart_333-EXP-27-vasp.equil
Reading restart file ...
  restart file = 10 Sep 2025, LAMMPS = 10 Sep 2025
  restoring atom style full from restart
  triclinic box = (-0.14250308 -0.16633729 -0.20388747) to (15.287226 13.194642 16.7019) with tilt (-7.8939615 -0.65236226 0.5948275)
  restoring pair style lj/cut from restart
  restoring bond style harmonic from restart
  restoring angle style hybrid from restart
  restoring dihedral style harmonic from restart
  295 atoms
  315 bonds
  599 angles
  759 dihedrals
Finding 1-2 1-3 1-4 neighbors ...
     4 = max # of 1-2 neighbors
     8 = max # of 1-3 neighbors
    12 = max # of special neighbors
  read_restart CPU = 0.001 seconds
include ./input/angles_333-EXP-27-vasp.mod
angle_style hybrid fourier cosine/periodic
angle_coeff 1 fourier 157.882480        0.343737        0.374972        0.281246
angle_coeff 2 fourier 221.735285        0.343737        0.374972        0.281246
angle_coeff 3 fourier 83.380072        0.343737        0.374972        0.281246
angle_coeff 4 fourier 58.020602        0.343737        0.374972        0.281246
angle_coeff 5 fourier 114.246973        0.343737        0.374972        0.281246
angle_coeff 6 fourier 32.417871        0.343737        0.374972        0.281246
angle_coeff 7 fourier 90.420412        0.343737        0.374972        0.281246
angle_coeff 8 fourier 75.498766        0.343737        0.374972        0.281246
angle_coeff 9 cosine/periodic 88.853997              -1               3

# Positive deformation

variable delta equal 0.02*16.9057879317147
variable deltaxy equal 0.02*xy
variable deltaxz equal 0.02*xz
variable deltayz equal 0.02*yz
change_box all z delta 0 0.338115758634294 remap units box
Changing box ...
  triclinic box = (-0.14250308 -0.16633729 -0.20388747) to (15.287226 13.194642 17.040016) with tilt (-7.8939615 -0.65236226 0.5948275)

# Relax atoms positions

minimize 0 1e-10 100000 100000
Generated 6 of 6 mixed pair_coeff terms from arithmetic mixing rule
For more information see https://docs.lammps.org/err0027 (src/domain.cpp:1052)
Step          Temp          E_pair         E_mol          TotEng         Press
250315   311.28685     -376.28482      359.31769      255.83164     -19333.064
Loop time of 0.0164446 on 1 procs for 31 steps with 295 atoms

Minimization stats:
  Stopping criterion = linesearch alpha is zero
  Energy initial, next-to-last, final =
  Force two-norm initial, final = 187.82621 18.414876
  Force max component initial, final = 24.667814 2.3383223
  Final line search alpha, max atom move = 2.5437175e-11 5.9480312e-11
  Iterations, force evaluations = 31 118

# Obtain new stress tensor

variable tmp equal pe
variable e1 equal -111.243952965156
variable tmp equal press
variable p1 equal -5313.18228201151
variable tmp equal pxx
variable pxx1 equal -6671.70530822973
variable tmp equal pyy
variable pyy1 equal -1413.23221912979
variable tmp equal pzz
variable pzz1 equal -7854.609318675
variable tmp equal pxy
variable pxy1 equal 2857.11262537398
variable tmp equal pxz
variable pxz1 equal 2773.80576196353
variable tmp equal pyz
variable pyz1 equal 2507.37126614755

# Compute elastic constant from pressure tensor

variable C1pos equal 49.2502092229367
variable C2pos equal 23.4340825991348
variable C3pos equal 55.929726554007
variable C4pos equal -8.81367576603084
variable C5pos equal -9.67696557448604
variable C6pos equal 9.99624833702995

# Combine positive and negative

variable C13 equal 0.5*(-14.9270077503836+49.2502092229367)
variable C23 equal 0.5*(7.76427363993375+23.4340825991348)
variable C33 equal 0.5*(35.1578387593391+55.929726554007)
variable C43 equal 0.5*(20.7698123877123+-8.81367576603084)
variable C53 equal 0.5*(9.21498736545484+-9.67696557448604)
variable C63 equal 0.5*(-12.4169894699819+9.99624833702995)

# Delete dir to make sure it is not reused

variable dir delete

# uyz Perturbation

variable dir equal 4
include ./input/displace_333-EXP-27-vasp.mod
variable len0 equal 16.9057879317147

# Reset box and simulation parameters

clear
box tilt large

The 'box' command has been removed and will be ignored

read_restart restart_333-EXP-27-vasp.equil
Reading restart file ...
  restart file = 10 Sep 2025, LAMMPS = 10 Sep 2025
  restoring atom style full from restart
  triclinic box = (-0.14250308 -0.16633729 -0.20388747) to (15.287226 13.194642 16.7019) with tilt (-7.8939615 -0.65236226 0.5948275)
  restoring pair style lj/cut from restart
  restoring bond style harmonic from restart
  restoring angle style hybrid from restart
  restoring dihedral style harmonic from restart
  295 atoms
  315 bonds
  599 angles
  759 dihedrals
Finding 1-2 1-3 1-4 neighbors ...
     4 = max # of 1-2 neighbors
     8 = max # of 1-3 neighbors
    12 = max # of special neighbors
  read_restart CPU = 0.001 seconds
include ./input/angles_333-EXP-27-vasp.mod
angle_style hybrid fourier cosine/periodic
angle_coeff 1 fourier 157.882480        0.343737        0.374972        0.281246
angle_coeff 2 fourier 221.735285        0.343737        0.374972        0.281246
angle_coeff 3 fourier 83.380072        0.343737        0.374972        0.281246
angle_coeff 4 fourier 58.020602        0.343737        0.374972        0.281246
angle_coeff 5 fourier 114.246973        0.343737        0.374972        0.281246
angle_coeff 6 fourier 32.417871        0.343737        0.374972        0.281246
angle_coeff 7 fourier 90.420412        0.343737        0.374972        0.281246
angle_coeff 8 fourier 75.498766        0.343737        0.374972        0.281246
angle_coeff 9 cosine/periodic 88.853997              -1               3

# Negative deformation

variable delta equal -0.02*16.9057879317147
variable deltaxy equal -0.02*xy
variable deltaxz equal -0.02*xz
variable deltayz equal -0.02*yz
change_box all yz delta -0.338115758634294 remap units box
Changing box ...
  triclinic box = (-0.14250308 -0.16633729 -0.20388747) to (15.287226 13.194642 16.7019) with tilt (-7.8939615 -0.65236226 0.25671174)

# Relax atoms positions

minimize 0 1e-10 100000 100000
Generated 6 of 6 mixed pair_coeff terms from arithmetic mixing rule
For more information see https://docs.lammps.org/err0027 (src/domain.cpp:1052)
Step          Temp          E_pair         E_mol          TotEng         Press
250315   311.28685     -367.81506      337.82475      242.80847      3709.5638
Loop time of 0.0203367 on 1 procs for 44 steps with 295 atoms

Minimization stats:
  Stopping criterion = linesearch alpha is zero
  Energy initial, next-to-last, final =
  Force two-norm initial, final = 159.49898 13.825176
  Force max component initial, final = 17.261875 1.6652837
  Final line search alpha, max atom move = 4.6298333e-11 7.7099857e-11
  Iterations, force evaluations = 44 143

# Obtain new stress tensor

variable tmp equal pxx
variable pxx1 equal -2738.33091886295
variable tmp equal pyy
variable pyy1 equal 2249.16422986925
variable tmp equal pzz
variable pzz1 equal 1862.26314081771
variable tmp equal pxy
variable pxy1 equal 2370.15082937797
variable tmp equal pxz
variable pxz1 equal 3125.36472156308
variable tmp equal pyz
variable pyz1 equal 5661.42935965124

# Compute elastic constant from pressure tensor

variable C1neg equal -29.5833372761028
variable C2neg equal -5.12210035413955
variable C3neg equal -7.3453642565434
variable C4neg equal 24.5839662335493
variable C5neg equal 11.4347603724838
variable C6neg equal -12.43105731701

# Reset box and simulation parameters

clear
box tilt large

The 'box' command has been removed and will be ignored

read_restart restart_333-EXP-27-vasp.equil
Reading restart file ...
  restart file = 10 Sep 2025, LAMMPS = 10 Sep 2025
  restoring atom style full from restart
  triclinic box = (-0.14250308 -0.16633729 -0.20388747) to (15.287226 13.194642 16.7019) with tilt (-7.8939615 -0.65236226 0.5948275)
  restoring pair style lj/cut from restart
  restoring bond style harmonic from restart
  restoring angle style hybrid from restart
  restoring dihedral style harmonic from restart
  295 atoms
  315 bonds
  599 angles
  759 dihedrals
Finding 1-2 1-3 1-4 neighbors ...
     4 = max # of 1-2 neighbors
     8 = max # of 1-3 neighbors
    12 = max # of special neighbors
  read_restart CPU = 0.001 seconds
include ./input/angles_333-EXP-27-vasp.mod
angle_style hybrid fourier cosine/periodic
angle_coeff 1 fourier 157.882480        0.343737        0.374972        0.281246
angle_coeff 2 fourier 221.735285        0.343737        0.374972        0.281246
angle_coeff 3 fourier 83.380072        0.343737        0.374972        0.281246
angle_coeff 4 fourier 58.020602        0.343737        0.374972        0.281246
angle_coeff 5 fourier 114.246973        0.343737        0.374972        0.281246
angle_coeff 6 fourier 32.417871        0.343737        0.374972        0.281246
angle_coeff 7 fourier 90.420412        0.343737        0.374972        0.281246
angle_coeff 8 fourier 75.498766        0.343737        0.374972        0.281246
angle_coeff 9 cosine/periodic 88.853997              -1               3

# Positive deformation

variable delta equal 0.02*16.9057879317147
variable deltaxy equal 0.02*xy
variable deltaxz equal 0.02*xz
variable deltayz equal 0.02*yz
change_box all yz delta 0.338115758634294 remap units box
Changing box ...
  triclinic box = (-0.14250308 -0.16633729 -0.20388747) to (15.287226 13.194642 16.7019) with tilt (-7.8939615 -0.65236226 0.93294326)

# Relax atoms positions

minimize 0 1e-10 100000 100000
Generated 6 of 6 mixed pair_coeff terms from arithmetic mixing rule
For more information see https://docs.lammps.org/err0027 (src/domain.cpp:1052)
Step          Temp          E_pair         E_mol          TotEng         Press
250315   311.28685     -369.71586      338.83398      241.91689      2379.0447
Loop time of 0.0235503 on 1 procs for 41 steps with 295 atoms

Minimization stats:
  Stopping criterion = linesearch alpha is zero
  Energy initial, next-to-last, final =
  Force two-norm initial, final = 159.99006 10.613575
  Force max component initial, final = 17.715197 1.8413053
  Final line search alpha, max atom move = 9.8787896e-11 1.8189867e-10
  Iterations, force evaluations = 41 169

# Obtain new stress tensor

variable tmp equal pe
variable e1 equal -122.74178424859
variable tmp equal press
variable p1 equal -1510.62571958619
variable tmp equal pxx
variable pxx1 equal -4377.89301316866
variable tmp equal pyy
variable pyy1 equal 392.048932326214
variable tmp equal pzz
variable pzz1 equal -546.033077916112
variable tmp equal pxy
variable pxy1 equal 2859.797313754
variable tmp equal pxz
variable pxz1 equal 3062.59316683341
variable tmp equal pyz
variable pyz1 equal 935.301322147362

# Compute elastic constant from pressure tensor

variable C1pos equal 37.7811477476314
variable C2pos equal 14.4076768418547
variable C3pos equal 19.3868453502125
variable C4pos equal -0.953326046029895
variable C5pos equal -11.1209025988354
variable C6pos equal 9.98282489512985

# Combine positive and negative

variable C14 equal 0.5*(-29.5833372761028+37.7811477476314)
variable C24 equal 0.5*(-5.12210035413955+14.4076768418547)
variable C34 equal 0.5*(-7.3453642565434+19.3868453502125)
variable C44 equal 0.5*(24.5839662335493+-0.953326046029895)
variable C54 equal 0.5*(11.4347603724838+-11.1209025988354)
variable C64 equal 0.5*(-12.43105731701+9.98282489512985)

# Delete dir to make sure it is not reused

variable dir delete

# uxz Perturbation

variable dir equal 5
include ./input/displace_333-EXP-27-vasp.mod
variable len0 equal 16.9057879317147

# Reset box and simulation parameters

clear
box tilt large

The 'box' command has been removed and will be ignored

read_restart restart_333-EXP-27-vasp.equil
Reading restart file ...
  restart file = 10 Sep 2025, LAMMPS = 10 Sep 2025
  restoring atom style full from restart
  triclinic box = (-0.14250308 -0.16633729 -0.20388747) to (15.287226 13.194642 16.7019) with tilt (-7.8939615 -0.65236226 0.5948275)
  restoring pair style lj/cut from restart
  restoring bond style harmonic from restart
  restoring angle style hybrid from restart
  restoring dihedral style harmonic from restart
  295 atoms
  315 bonds
  599 angles
  759 dihedrals
Finding 1-2 1-3 1-4 neighbors ...
     4 = max # of 1-2 neighbors
     8 = max # of 1-3 neighbors
    12 = max # of special neighbors
  read_restart CPU = 0.001 seconds
include ./input/angles_333-EXP-27-vasp.mod
angle_style hybrid fourier cosine/periodic
angle_coeff 1 fourier 157.882480        0.343737        0.374972        0.281246
angle_coeff 2 fourier 221.735285        0.343737        0.374972        0.281246
angle_coeff 3 fourier 83.380072        0.343737        0.374972        0.281246
angle_coeff 4 fourier 58.020602        0.343737        0.374972        0.281246
angle_coeff 5 fourier 114.246973        0.343737        0.374972        0.281246
angle_coeff 6 fourier 32.417871        0.343737        0.374972        0.281246
angle_coeff 7 fourier 90.420412        0.343737        0.374972        0.281246
angle_coeff 8 fourier 75.498766        0.343737        0.374972        0.281246
angle_coeff 9 cosine/periodic 88.853997              -1               3

# Negative deformation

variable delta equal -0.02*16.9057879317147
variable deltaxy equal -0.02*xy
variable deltaxz equal -0.02*xz
variable deltayz equal -0.02*yz
change_box all xz delta -0.338115758634294 remap units box
Changing box ...
  triclinic box = (-0.14250308 -0.16633729 -0.20388747) to (15.287226 13.194642 16.7019) with tilt (-7.8939615 -0.99047802 0.5948275)

# Relax atoms positions

minimize 0 1e-10 100000 100000
Generated 6 of 6 mixed pair_coeff terms from arithmetic mixing rule
For more information see https://docs.lammps.org/err0027 (src/domain.cpp:1052)
Step          Temp          E_pair         E_mol          TotEng         Press
250315   311.28685     -367.99966      339.176        243.97511      2996.4164
Loop time of 0.0169965 on 1 procs for 32 steps with 295 atoms

Minimization stats:
  Stopping criterion = linesearch alpha is zero
  Energy initial, next-to-last, final =
  Force two-norm initial, final = 154.24091 17.963881
  Force max component initial, final = 20.975137 2.3620993
  Final line search alpha, max atom move = 2.9310238e-11 6.9233693e-11
  Iterations, force evaluations = 32 120

# Obtain new stress tensor

variable tmp equal pxx
variable pxx1 equal -3989.96796522402
variable tmp equal pyy
variable pyy1 equal 1494.36334611687
variable tmp equal pzz
variable pzz1 equal 249.136123804509
variable tmp equal pxy
variable pxy1 equal 2830.95373450141
variable tmp equal pxz
variable pxz1 equal 6145.11234140127
variable tmp equal pyz
variable pyz1 equal 3489.74516036838

# Compute elastic constant from pressure tensor

variable C1neg equal -35.8415225079082
variable C2neg equal -8.89610477290145
variable C3neg equal -15.4109993416094
variable C4neg equal 13.725545237135
variable C5neg equal 26.5334984716747
variable C6neg equal -10.1270427913928

# Reset box and simulation parameters

clear
box tilt large

The 'box' command has been removed and will be ignored

read_restart restart_333-EXP-27-vasp.equil
Reading restart file ...
  restart file = 10 Sep 2025, LAMMPS = 10 Sep 2025
  restoring atom style full from restart
  triclinic box = (-0.14250308 -0.16633729 -0.20388747) to (15.287226 13.194642 16.7019) with tilt (-7.8939615 -0.65236226 0.5948275)
  restoring pair style lj/cut from restart
  restoring bond style harmonic from restart
  restoring angle style hybrid from restart
  restoring dihedral style harmonic from restart
  295 atoms
  315 bonds
  599 angles
  759 dihedrals
Finding 1-2 1-3 1-4 neighbors ...
     4 = max # of 1-2 neighbors
     8 = max # of 1-3 neighbors
    12 = max # of special neighbors
  read_restart CPU = 0.001 seconds
include ./input/angles_333-EXP-27-vasp.mod
angle_style hybrid fourier cosine/periodic
angle_coeff 1 fourier 157.882480        0.343737        0.374972        0.281246
angle_coeff 2 fourier 221.735285        0.343737        0.374972        0.281246
angle_coeff 3 fourier 83.380072        0.343737        0.374972        0.281246
angle_coeff 4 fourier 58.020602        0.343737        0.374972        0.281246
angle_coeff 5 fourier 114.246973        0.343737        0.374972        0.281246
angle_coeff 6 fourier 32.417871        0.343737        0.374972        0.281246
angle_coeff 7 fourier 90.420412        0.343737        0.374972        0.281246
angle_coeff 8 fourier 75.498766        0.343737        0.374972        0.281246
angle_coeff 9 cosine/periodic 88.853997              -1               3

# Positive deformation

variable delta equal 0.02*16.9057879317147
variable deltaxy equal 0.02*xy
variable deltaxz equal 0.02*xz
variable deltayz equal 0.02*yz
change_box all xz delta 0.338115758634294 remap units box
Changing box ...
  triclinic box = (-0.14250308 -0.16633729 -0.20388747) to (15.287226 13.194642 16.7019) with tilt (-7.8939615 -0.3142465 0.5948275)

# Relax atoms positions

minimize 0 1e-10 100000 100000
Generated 6 of 6 mixed pair_coeff terms from arithmetic mixing rule
For more information see https://docs.lammps.org/err0027 (src/domain.cpp:1052)
Step          Temp          E_pair         E_mol          TotEng         Press
250315   311.28685     -368.87512      337.05485      240.9785       3119.9472
Loop time of 0.0270728 on 1 procs for 64 steps with 295 atoms

Minimization stats:
  Stopping criterion = linesearch alpha is zero
  Energy initial, next-to-last, final =
  Force two-norm initial, final = 154.98697 10.551598
  Force max component initial, final = 16.229931 1.4344334
  Final line search alpha, max atom move = 6.1562292e-11 8.8307009e-11
  Iterations, force evaluations = 64 181

# Obtain new stress tensor

variable tmp equal pe
variable e1 equal -126.703679162301
variable tmp equal press
variable p1 equal -665.732790043635
variable tmp equal pxx
variable pxx1 equal -3397.97287960935
variable tmp equal pyy
variable pyy1 equal 567.253704740063
variable tmp equal pzz
variable pzz1 equal 833.520804738389
variable tmp equal pxy
variable pxy1 equal 2192.34942339591
variable tmp equal pxz
variable pxz1 equal 971.622027316011
variable tmp equal pyz
variable pyz1 equal 3381.02214921649

# Compute elastic constant from pressure tensor

variable C1pos equal 32.8815470798349
variable C2pos equal 13.5316529797855
variable C3pos equal 12.48907593694
variable C4pos equal -13.1819301813755
variable C5pos equal -0.66604690124844
variable C6pos equal 13.3200643469203

# Combine positive and negative

variable C15 equal 0.5*(-35.8415225079082+32.8815470798349)
variable C25 equal 0.5*(-8.89610477290145+13.5316529797855)
variable C35 equal 0.5*(-15.4109993416094+12.48907593694)
variable C45 equal 0.5*(13.725545237135+-13.1819301813755)
variable C55 equal 0.5*(26.5334984716747+-0.66604690124844)
variable C65 equal 0.5*(-10.1270427913928+13.3200643469203)

# Delete dir to make sure it is not reused

variable dir delete

# uxy Perturbation

variable dir equal 6
include ./input/displace_333-EXP-27-vasp.mod
variable len0 equal 13.3609795753377

# Reset box and simulation parameters

clear
box tilt large

The 'box' command has been removed and will be ignored

read_restart restart_333-EXP-27-vasp.equil
Reading restart file ...
  restart file = 10 Sep 2025, LAMMPS = 10 Sep 2025
  restoring atom style full from restart
  triclinic box = (-0.14250308 -0.16633729 -0.20388747) to (15.287226 13.194642 16.7019) with tilt (-7.8939615 -0.65236226 0.5948275)
  restoring pair style lj/cut from restart
  restoring bond style harmonic from restart
  restoring angle style hybrid from restart
  restoring dihedral style harmonic from restart
  295 atoms
  315 bonds
  599 angles
  759 dihedrals
Finding 1-2 1-3 1-4 neighbors ...
     4 = max # of 1-2 neighbors
     8 = max # of 1-3 neighbors
    12 = max # of special neighbors
  read_restart CPU = 0.001 seconds
include ./input/angles_333-EXP-27-vasp.mod
angle_style hybrid fourier cosine/periodic
angle_coeff 1 fourier 157.882480        0.343737        0.374972        0.281246
angle_coeff 2 fourier 221.735285        0.343737        0.374972        0.281246
angle_coeff 3 fourier 83.380072        0.343737        0.374972        0.281246
angle_coeff 4 fourier 58.020602        0.343737        0.374972        0.281246
angle_coeff 5 fourier 114.246973        0.343737        0.374972        0.281246
angle_coeff 6 fourier 32.417871        0.343737        0.374972        0.281246
angle_coeff 7 fourier 90.420412        0.343737        0.374972        0.281246
angle_coeff 8 fourier 75.498766        0.343737        0.374972        0.281246
angle_coeff 9 cosine/periodic 88.853997              -1               3

# Negative deformation

variable delta equal -0.02*13.3609795753377
variable deltaxy equal -0.02*xy
variable deltaxz equal -0.02*xz
variable deltayz equal -0.02*yz
change_box all xy delta -0.267219591506754 remap units box
Changing box ...
  triclinic box = (-0.14250308 -0.16633729 -0.20388747) to (15.287226 13.194642 16.7019) with tilt (-8.1611811 -0.65236226 0.5948275)

# Relax atoms positions

minimize 0 1e-10 100000 100000
Generated 6 of 6 mixed pair_coeff terms from arithmetic mixing rule
For more information see https://docs.lammps.org/err0027 (src/domain.cpp:1052)
Step          Temp          E_pair         E_mol          TotEng         Press
250315   311.28685     -370.09704      344.51115      247.21288      2300.1399
Loop time of 0.0200072 on 1 procs for 44 steps with 295 atoms

Minimization stats:
  Stopping criterion = linesearch alpha is zero
  Energy initial, next-to-last, final =
  Force two-norm initial, final = 162.85769 14.412223
  Force max component initial, final = 19.368841 1.8853527
  Final line search alpha, max atom move = 3.4022884e-11 6.4145135e-11
  Iterations, force evaluations = 44 143

# Obtain new stress tensor

variable tmp equal pxx
variable pxx1 equal -4376.55964760374
variable tmp equal pyy
variable pyy1 equal -391.19213939256
variable tmp equal pzz
variable pzz1 equal 376.6535793319
variable tmp equal pxy
variable pxy1 equal 4760.94899642522
variable tmp equal pxz
variable pxz1 equal 3118.74564707222
variable tmp equal pyz
variable pyz1 equal 3077.3538564224

# Compute elastic constant from pressure tensor

variable C1neg equal -37.7744809198068
variable C2neg equal -18.3238822004486
variable C3neg equal -14.7734120639725
variable C4neg equal 11.6635887174051
variable C5neg equal 11.4016650000295
variable C6neg equal -0.47706648177375

# Reset box and simulation parameters

clear
box tilt large

The 'box' command has been removed and will be ignored

read_restart restart_333-EXP-27-vasp.equil
Reading restart file ...
  restart file = 10 Sep 2025, LAMMPS = 10 Sep 2025
  restoring atom style full from restart
  triclinic box = (-0.14250308 -0.16633729 -0.20388747) to (15.287226 13.194642 16.7019) with tilt (-7.8939615 -0.65236226 0.5948275)
  restoring pair style lj/cut from restart
  restoring bond style harmonic from restart
  restoring angle style hybrid from restart
  restoring dihedral style harmonic from restart
  295 atoms
  315 bonds
  599 angles
  759 dihedrals
Finding 1-2 1-3 1-4 neighbors ...
     4 = max # of 1-2 neighbors
     8 = max # of 1-3 neighbors
    12 = max # of special neighbors
  read_restart CPU = 0.001 seconds
include ./input/angles_333-EXP-27-vasp.mod
angle_style hybrid fourier cosine/periodic
angle_coeff 1 fourier 157.882480        0.343737        0.374972        0.281246
angle_coeff 2 fourier 221.735285        0.343737        0.374972        0.281246
angle_coeff 3 fourier 83.380072        0.343737        0.374972        0.281246
angle_coeff 4 fourier 58.020602        0.343737        0.374972        0.281246
angle_coeff 5 fourier 114.246973        0.343737        0.374972        0.281246
angle_coeff 6 fourier 32.417871        0.343737        0.374972        0.281246
angle_coeff 7 fourier 90.420412        0.343737        0.374972        0.281246
angle_coeff 8 fourier 75.498766        0.343737        0.374972        0.281246
angle_coeff 9 cosine/periodic 88.853997              -1               3

# Positive deformation

variable delta equal 0.02*13.3609795753377
variable deltaxy equal 0.02*xy
variable deltaxz equal 0.02*xz
variable deltayz equal 0.02*yz
change_box all xy delta 0.267219591506754 remap units box
Changing box ...
  triclinic box = (-0.14250308 -0.16633729 -0.20388747) to (15.287226 13.194642 16.7019) with tilt (-7.6267419 -0.65236226 0.5948275)

# Relax atoms positions

minimize 0 1e-10 100000 100000
Generated 6 of 6 mixed pair_coeff terms from arithmetic mixing rule
For more information see https://docs.lammps.org/err0027 (src/domain.cpp:1052)
Step          Temp          E_pair         E_mol          TotEng         Press
250315   311.28685     -367.50187      331.01716      236.31405      3798.2011
Loop time of 0.0153791 on 1 procs for 26 steps with 295 atoms

Minimization stats:
  Stopping criterion = linesearch alpha is zero
  Energy initial, next-to-last, final =
  Force two-norm initial, final = 158.82501 22.465416
  Force max component initial, final = 17.291963 3.1988152
  Final line search alpha, max atom move = 1.9950455e-11 6.3817818e-11
  Iterations, force evaluations = 26 108

# Obtain new stress tensor

variable tmp equal pe
variable e1 equal -119.942858125838
variable tmp equal press
variable p1 equal 290.91799310828
variable tmp equal pxx
variable pxx1 equal -2799.82404859185
variable tmp equal pyy
variable pyy1 equal 2498.78910477502
variable tmp equal pzz
variable pzz1 equal 1173.78892314168
variable tmp equal pxy
variable pxy1 equal 468.699941484201
variable tmp equal pxz
variable pxz1 equal 2584.505637232
variable tmp equal pyz
variable pyz1 equal 3716.30083361717

# Compute elastic constant from pressure tensor

variable C1pos equal 29.8908029247474
variable C2pos equal 3.8739759796107
variable C3pos equal 10.7877353449235
variable C4pos equal -14.8583236033789
variable C5pos equal -8.73046495082839
variable C6pos equal 21.9383117564788

# Combine positive and negative

variable C16 equal 0.5*(-37.7744809198068+29.8908029247474)
variable C26 equal 0.5*(-18.3238822004486+3.8739759796107)
variable C36 equal 0.5*(-14.7734120639725+10.7877353449235)
variable C46 equal 0.5*(11.6635887174051+-14.8583236033789)
variable C56 equal 0.5*(11.4016650000295+-8.73046495082839)
variable C66 equal 0.5*(-0.47706648177375+21.9383117564788)

# Delete dir to make sure it is not reused

variable dir delete

# Output final values

variable C11all equal 41.3083951999151
variable C22all equal 34.0885542655975
variable C33all equal 45.543782656673

variable C12all equal 0.5*(13.1689897288151+13.3989097018159)
variable C13all equal 0.5*(17.1616007362765+17.4768427974756)
variable C23all equal 0.5*(15.5991781195343+15.8282456444993)

variable C44all equal 11.8153200937597
variable C55all equal 12.9337257852131
variable C66all equal 10.7306226373525

variable C14all equal 0.5*(4.0989052357643+4.44581662844188)
variable C15all equal 0.5*(-1.47998771403665+1.20663181089558)
variable C16all equal 0.5*(-3.9418389975297+-3.25644265129452)

variable C24all equal 0.5*(4.64278824385758+4.73187182762588)
variable C25all equal 0.5*(2.31777410344202+1.97655164062175)
variable C26all equal 0.5*(-7.22495311041895+-7.0128024731232)

variable C34all equal 0.5*(6.02074054683455+5.97806831084073)
variable C35all equal 0.5*(-1.4609617023347+-0.2309891045156)
variable C36all equal 0.5*(-1.9928383595245+-1.21037056647597)

variable C45all equal 0.5*(0.27180752787975+0.1569288868242)
variable C46all equal 0.5*(-1.5973674429869+-1.22411621094007)
variable C56all equal 0.5*(1.33560002460055+1.59651077776375)

# Average moduli for cubic crystals

variable C11cubic equal (41.3083951999151+34.0885542655975+45.543782656673)/3.0
variable C12cubic equal (13.2839497153155+17.3192217668761+15.7137118820168)/3.0
variable C44cubic equal (11.8153200937597+12.9337257852131+10.7306226373525)/3.0

variable bulkmodulus equal (40.3135773740619+2*15.4389611214028)/3.0
variable shearmodulus1 equal 11.8265561721084
variable shearmodulus2 equal (40.3135773740619-15.4389611214028)/2.0
variable poissonratio equal 1.0/(1.0+40.3135773740619/15.4389611214028)

Elastic Constant 1 1 = 41.3083951999151
Elastic Constant 2 2 = 34.0885542655975
Elastic Constant 3 3 = 45.543782656673

Elastic Constant 1 2 = 13.2839497153155
Elastic Constant 1 3 = 17.3192217668761
Elastic Constant 2 3 = 15.7137118820168

Elastic Constant 4 4 = 11.8153200937597
Elastic Constant 5 5 = 12.9337257852131
Elastic Constant 6 6 = 10.7306226373525

Elastic Constant 1 4 = 4.27236093210309
Elastic Constant 1 5 = -0.136677951570535
Elastic Constant 1 6 = -3.59914082441211

Elastic Constant 2 4 = 4.68733003574173
Elastic Constant 2 5 = 2.14716287203188
Elastic Constant 2 6 = -7.11887779177107

Elastic Constant 3 4 = 5.99940442883764
Elastic Constant 3 5 = -0.84597540342515
Elastic Constant 3 6 = -1.60160446300024

Elastic Constant 4 5 = 0.214368207351975
Elastic Constant 4 6 = -1.41074182696349
Elastic Constant 5 6 = 1.46605540118215

Bulk Modulus = 23.7304998722892 GPa
Shear Modulus 1 = 11.8265561721084 GPa
Shear Modulus 2 = 12.4373081263296 GPa
Poisson Ratio = 0.276919428927146

variable rho equal density
density (g/cm^3) = 1.50071817237169
