units           real
atom_style      full
boundary        p p p

pair_style      lj/cut 5.000
bond_style      harmonic
angle_style     hybrid fourier cosine/periodic
dihedral_style  harmonic

pair_modify     tail yes mix arithmetic
special_bonds   lj/coul 0.0 0.0 1.0
dielectric      1.0
box tilt        large

The 'box' command has been removed and will be ignored

read_data       ./dat/data.333-RV-32-vasp
Reading data file ...
  triclinic box = (0 0 0) to (15.708732 13.086792 17.524803) with tilt (-8.204242 -0.145779 -2.00561)
  reading atoms ...
  331 atoms
  scanning bonds ...
  scanning angles ...
  scanning dihedrals ...
  triclinic box = (0 0 0) to (15.708732 13.086792 17.524803) with tilt (-8.204242 -0.145779 -2.00561)
  reading bonds ...
  336 bonds
  reading angles ...
  626 angles
  reading dihedrals ...
  732 dihedrals
Finding 1-2 1-3 1-4 neighbors ...
     4 = max # of 1-2 neighbors
    10 = max # of 1-3 neighbors
    14 = max # of special neighbors

#### Atom Groupings ####
group           1        id   32 51 79 83 93:95 123 225:227 237:239 267:275 331
24 atoms in group 1
group           fram     id   1:31 33:50 52:78 80:82 84:92 96:122 124:224 228:236 240:266 276:330
307 atoms in group fram
#### END Atom Groupings ####

compute am all property/atom mass
dump        atom_pos all extxyz 100 ./output/333-RV-32-vasp.lammpstrj
dump_modify atom_pos element Si C H O Si C H O mass yes
thermo          1000
thermo_style    custom step temp pe ke etotal press vol density

variable up equal 2e-2
variable cfac equal 1.0e-4
variable cunits string GPa

# Define minimization parameters
variable etol equal 0.0
variable ftol equal 1.0e-10
variable maxiter equal 100000
variable maxeval equal 100000
variable dmax equal 1.0e-2

variable temp equal 300.0
variable thermal_damp index 100.0
variable pressure_damp index 500.0

fix relax all box/relax aniso 0.0 vmax 0.001
unfix relax
minimize 0 1e-10 100000 100000
Generated 28 of 28 mixed pair_coeff terms from arithmetic mixing rule
For more information see https://docs.lammps.org/err0027 (src/domain.cpp:1052)
Step          Temp          PotEng         KinEng         TotEng         Press          Volume        Density
0   0              569.62796      0              569.62796      54553.79       3602.6948      1.4003667
Loop time of 0.0331277 on 1 procs for 51 steps with 331 atoms

Minimization stats:
  Stopping criterion = linesearch alpha is zero
  Energy initial, next-to-last, final =
  Force two-norm initial, final = 741.03919 25.813478
  Force max component initial, final = 85.701201 4.1665862
  Final line search alpha, max atom move = 1.12838e-11 4.7014927e-11
  Iterations, force evaluations = 51 158

# Generating the full routine as described in the paper for UFF
fix nvt_relax   all nvt temp 300 300 100.0
run 100000      # 100 picoseconds
Generated 28 of 28 mixed pair_coeff terms from arithmetic mixing rule
For more information see https://docs.lammps.org/err0027 (src/domain.cpp:1052)
Step          Temp          PotEng         KinEng         TotEng         Press          Volume        Density
51   0             -202.08425      0             -202.08425      8550.0185      3602.6948      1.4003667
Averages over the last 51 of 102 rows, steps 51000 to 100051:
Temp PotEng KinEng TotEng Press Volume Density
297.3 -7.42051 292.445 285.024 9282.03 3602.69 1.40037
Loop time of 20.8679 on 1 procs for 100000 steps with 331 atoms

unfix           nvt_relax

fix npt_relax   all npt temp 300 300 100.0 iso 0 0 500.0
run 100000      # 100 picoseconds
Generated 28 of 28 mixed pair_coeff terms from arithmetic mixing rule
For more information see https://docs.lammps.org/err0027 (src/domain.cpp:1052)
Step          Temp          PotEng         KinEng         TotEng         Press          Volume        Density
100051   311.70663     -5.4315737      306.61562      301.18405      10770.461      3602.6948      1.4003667
Averages over the last 51 of 102 rows, steps 151000 to 200051:
Temp PotEng KinEng TotEng Press Volume Density
299.167 -11.0898 294.281 283.191 1.43088 3939.12 1.2809
Loop time of 22.3122 on 1 procs for 100000 steps with 331 atoms

unfix           npt_relax

# run 100000      # 100 picoseconds
# unfix           nvt_heat
#
# run 100000      # 100 picoseconds
# unfix           npt_heat
#
# run 700000      # 700 picoseconds
# unfix           cooling_npt
#
# run 100000      # 100 picoseconds
# unfix           npt_final

# density computation
variable rho equal density
fix integrate  all npt temp 300 300 100.0 iso 0 0 500.0
fix rho50k all ave/time 10 5000 50000 v_rho mode scalar ave one
run 50000
Generated 28 of 28 mixed pair_coeff terms from arithmetic mixing rule
For more information see https://docs.lammps.org/err0027 (src/domain.cpp:1052)
Step          Temp          PotEng         KinEng         TotEng         Press          Volume        Density
200051   293.18758     -3.6031032      288.39904      284.79593     -3176.8975      3967.8047      1.2715076
Averages over the last 26 of 52 rows, steps 226000 to 250051:
Temp PotEng KinEng TotEng Press Volume Density
301.105 -3.47692 296.187 292.71 -19.7655 3937.25 1.28153
Loop time of 11.3244 on 1 procs for 50000 steps with 331 atoms

unfix integrate
unfix rho50k

# Compute initial state
fix 3 all box/relax  aniso 0.0
minimize 0 1e-10 100000 100000
Generated 28 of 28 mixed pair_coeff terms from arithmetic mixing rule
 (src/min.cpp:222)
For more information see https://docs.lammps.org/err0027 (src/domain.cpp:1052)
Step          Temp          PotEng         KinEng         TotEng         Press          Volume        Density
250051   297.91807     -15.813544      293.05227      277.23873     -1748.04        3916.0014      1.2883279
Loop time of 0.120493 on 1 procs for 378 steps with 331 atoms

Minimization stats:
  Stopping criterion = linesearch alpha is zero
  Energy initial, next-to-last, final =
  Force two-norm initial, final = 791.28749 93.924784
  Force max component initial, final = 396.04169 11.422733
  Final line search alpha, max atom move = 7.0967344e-13 8.1064103e-12
  Iterations, force evaluations = 378 531

variable tmp equal pxx
variable pxx0 equal 3783.22784298604
variable tmp equal pyy
variable pyy0 equal 3670.30213565919
variable tmp equal pzz
variable pzz0 equal 3265.21625369643
variable tmp equal pyz
variable pyz0 equal 2681.78597914139
variable tmp equal pxz
variable pxz0 equal -154.167226158294
variable tmp equal pxy
variable pxy0 equal 1020.25483799562

variable tmp equal lx
variable lx0 equal 16.0761767790504
variable tmp equal ly
variable ly0 equal 13.5020044066054
variable tmp equal lz
variable lz0 equal 17.9458870842928

# These formulas define the derivatives w.r.t. strain components
# Constants uses $, variables use v_
variable d1 equal -(v_pxx1-3783.22784298604)/(v_delta/v_len0)*0.0001
variable d2 equal -(v_pyy1-3670.30213565919)/(v_delta/v_len0)*0.0001
variable d3 equal -(v_pzz1-3265.21625369643)/(v_delta/v_len0)*0.0001
variable d4 equal -(v_pyz1-2681.78597914139)/(v_delta/v_len0)*0.0001
variable d5 equal -(v_pxz1--154.167226158294)/(v_delta/v_len0)*0.0001
variable d6 equal -(v_pxy1-1020.25483799562)/(v_delta/v_len0)*0.0001

# Write restart
unfix 3
write_restart restart_333-RV-32-vasp.equil
System init for write_restart ...
Generated 28 of 28 mixed pair_coeff terms from arithmetic mixing rule

# uxx Perturbation

variable dir equal 1
include ./input/displace_333-RV-32-vasp.mod
variable len0 equal 16.0761767790504

# Reset box and simulation parameters

clear
box tilt large

The 'box' command has been removed and will be ignored

read_restart restart_333-RV-32-vasp.equil
Reading restart file ...
  restart file = 10 Sep 2025, LAMMPS = 10 Sep 2025
  restoring atom style full from restart
  triclinic box = (-0.18372239 -0.2076062 -0.21054204) to (15.892454 13.294398 17.735345) with tilt (-8.4645428 -0.14928176 -2.0538006)
  restoring pair style lj/cut from restart
  restoring bond style harmonic from restart
  restoring angle style hybrid from restart
  restoring dihedral style harmonic from restart
  331 atoms
  336 bonds
  626 angles
  732 dihedrals
Finding 1-2 1-3 1-4 neighbors ...
     4 = max # of 1-2 neighbors
    10 = max # of 1-3 neighbors
    14 = max # of special neighbors
  read_restart CPU = 0.001 seconds
include ./input/angles_333-RV-32-vasp.mod
angle_style hybrid fourier cosine/periodic
angle_coeff 1 fourier 114.246973        0.343737        0.374972        0.281246
angle_coeff 2 fourier 157.882480        0.343737        0.374972        0.281246
angle_coeff 3 fourier 221.735285        0.343737        0.374972        0.281246
angle_coeff 4 fourier 58.020602        0.343737        0.374972        0.281246
angle_coeff 5 fourier 32.417871        0.343737        0.374972        0.281246
angle_coeff 6 fourier 83.380072        0.343737        0.374972        0.281246
angle_coeff 7 fourier 90.420412        0.343737        0.374972        0.281246
angle_coeff 8 fourier 75.498766        0.343737        0.374972        0.281246
angle_coeff 9 cosine/periodic 88.853997              -1               3

# Negative deformation

variable delta equal -0.02*16.0761767790504
variable deltaxy equal -0.02*xy
variable deltaxz equal -0.02*xz
variable deltayz equal -0.02*yz
change_box all x delta 0 -0.321523535581008 xy delta 0.169290856975275 xz delta 0.00298563524310205 remap units box
Changing box ...
  triclinic box = (-0.18372239 -0.2076062 -0.21054204) to (15.570931 13.294398 17.735345) with tilt (-8.4645428 -0.14928176 -2.0538006)
  triclinic box = (-0.18372239 -0.2076062 -0.21054204) to (15.570931 13.294398 17.735345) with tilt (-8.295252 -0.14928176 -2.0538006)
  triclinic box = (-0.18372239 -0.2076062 -0.21054204) to (15.570931 13.294398 17.735345) with tilt (-8.295252 -0.14629613 -2.0538006)

# Relax atoms positions

minimize 0 1e-10 100000 100000
Generated 28 of 28 mixed pair_coeff terms from arithmetic mixing rule
For more information see https://docs.lammps.org/err0027 (src/domain.cpp:1052)
Step          Temp          E_pair         E_mol          TotEng         Press
250429   297.91807     -407.46781      214.42625      100.01072      22803.521
Loop time of 0.0283835 on 1 procs for 42 steps with 331 atoms

Minimization stats:
  Stopping criterion = linesearch alpha is zero
  Energy initial, next-to-last, final =
  Force two-norm initial, final = 180.84565 20.331915
  Force max component initial, final = 20.705909 4.2167825
  Final line search alpha, max atom move = 1.621213e-11 6.8363026e-11
  Iterations, force evaluations = 42 141

# Obtain new stress tensor

variable tmp equal pxx
variable pxx1 equal 4360.47566313719
variable tmp equal pyy
variable pyy1 equal 2548.76351430821
variable tmp equal pzz
variable pzz1 equal 2297.78948565352
variable tmp equal pxy
variable pxy1 equal -1323.70154499052
variable tmp equal pxz
variable pxz1 equal 365.414992973823
variable tmp equal pyz
variable pyz1 equal 107.718829136126

# Compute elastic constant from pressure tensor

variable C1neg equal 2.88623910075575
variable C2neg equal -5.6076931067549
variable C3neg equal -4.83713384021455
variable C4neg equal -12.8703357500263
variable C5neg equal 2.59791109566059
variable C6neg equal -11.7197819149307

# Reset box and simulation parameters

clear
box tilt large

The 'box' command has been removed and will be ignored

read_restart restart_333-RV-32-vasp.equil
Reading restart file ...
  restart file = 10 Sep 2025, LAMMPS = 10 Sep 2025
  restoring atom style full from restart
  triclinic box = (-0.18372239 -0.2076062 -0.21054204) to (15.892454 13.294398 17.735345) with tilt (-8.4645428 -0.14928176 -2.0538006)
  restoring pair style lj/cut from restart
  restoring bond style harmonic from restart
  restoring angle style hybrid from restart
  restoring dihedral style harmonic from restart
  331 atoms
  336 bonds
  626 angles
  732 dihedrals
Finding 1-2 1-3 1-4 neighbors ...
     4 = max # of 1-2 neighbors
    10 = max # of 1-3 neighbors
    14 = max # of special neighbors
  read_restart CPU = 0.001 seconds
include ./input/angles_333-RV-32-vasp.mod
angle_style hybrid fourier cosine/periodic
angle_coeff 1 fourier 114.246973        0.343737        0.374972        0.281246
angle_coeff 2 fourier 157.882480        0.343737        0.374972        0.281246
angle_coeff 3 fourier 221.735285        0.343737        0.374972        0.281246
angle_coeff 4 fourier 58.020602        0.343737        0.374972        0.281246
angle_coeff 5 fourier 32.417871        0.343737        0.374972        0.281246
angle_coeff 6 fourier 83.380072        0.343737        0.374972        0.281246
angle_coeff 7 fourier 90.420412        0.343737        0.374972        0.281246
angle_coeff 8 fourier 75.498766        0.343737        0.374972        0.281246
angle_coeff 9 cosine/periodic 88.853997              -1               3

# Positive deformation

variable delta equal 0.02*16.0761767790504
variable deltaxy equal 0.02*xy
variable deltaxz equal 0.02*xz
variable deltayz equal 0.02*yz
change_box all x delta 0 0.321523535581008 xy delta -0.169290856975275 xz delta -0.00298563524310205 remap units box
Changing box ...
  triclinic box = (-0.18372239 -0.2076062 -0.21054204) to (16.213978 13.294398 17.735345) with tilt (-8.4645428 -0.14928176 -2.0538006)
  triclinic box = (-0.18372239 -0.2076062 -0.21054204) to (16.213978 13.294398 17.735345) with tilt (-8.6338337 -0.14928176 -2.0538006)
  triclinic box = (-0.18372239 -0.2076062 -0.21054204) to (16.213978 13.294398 17.735345) with tilt (-8.6338337 -0.1522674 -2.0538006)

# Relax atoms positions

minimize 0 1e-10 100000 100000
Generated 28 of 28 mixed pair_coeff terms from arithmetic mixing rule
For more information see https://docs.lammps.org/err0027 (src/domain.cpp:1052)
Step          Temp          E_pair         E_mol          TotEng         Press
250429   297.91807     -413.8506       220.7517       99.953377     -15168.022
Loop time of 0.0287588 on 1 procs for 46 steps with 331 atoms

Minimization stats:
  Stopping criterion = linesearch alpha is zero
  Energy initial, next-to-last, final =
  Force two-norm initial, final = 171.2673 18.072505
  Force max component initial, final = 21.039837 2.9448344
  Final line search alpha, max atom move = 2.8351989e-11 8.3491914e-11
  Iterations, force evaluations = 46 147

# Obtain new stress tensor

variable tmp equal pe
variable e1 equal -300.638660577379
variable tmp equal press
variable p1 equal -1824.91444491584
variable tmp equal pxx
variable pxx1 equal -4617.98301204735
variable tmp equal pyy
variable pyy1 equal 133.692669460503
variable tmp equal pzz
variable pzz1 equal -990.452992160671
variable tmp equal pxy
variable pxy1 equal -310.709182892075
variable tmp equal pxz
variable pxz1 equal -362.535382054832
variable tmp equal pyz
variable pyz1 equal 214.90369570081

# Compute elastic constant from pressure tensor

variable C1pos equal 42.006054275167
variable C2pos equal 17.6830473309934
variable C3pos equal 21.2783462292855
variable C4pos equal 12.3344114172029
variable C5pos equal 1.04184077948269
variable C6pos equal 6.65482010443847

# Combine positive and negative

variable C11 equal 0.5*(2.88623910075575+42.006054275167)
variable C21 equal 0.5*(-5.6076931067549+17.6830473309934)
variable C31 equal 0.5*(-4.83713384021455+21.2783462292855)
variable C41 equal 0.5*(-12.8703357500263+12.3344114172029)
variable C51 equal 0.5*(2.59791109566059+1.04184077948269)
variable C61 equal 0.5*(-11.7197819149307+6.65482010443847)

# Delete dir to make sure it is not reused

variable dir delete

# uyy Perturbation

variable dir equal 2
include ./input/displace_333-RV-32-vasp.mod
variable len0 equal 13.5020044066054

# Reset box and simulation parameters

clear
box tilt large

The 'box' command has been removed and will be ignored

read_restart restart_333-RV-32-vasp.equil
Reading restart file ...
  restart file = 10 Sep 2025, LAMMPS = 10 Sep 2025
  restoring atom style full from restart
  triclinic box = (-0.18372239 -0.2076062 -0.21054204) to (15.892454 13.294398 17.735345) with tilt (-8.4645428 -0.14928176 -2.0538006)
  restoring pair style lj/cut from restart
  restoring bond style harmonic from restart
  restoring angle style hybrid from restart
  restoring dihedral style harmonic from restart
  331 atoms
  336 bonds
  626 angles
  732 dihedrals
Finding 1-2 1-3 1-4 neighbors ...
     4 = max # of 1-2 neighbors
    10 = max # of 1-3 neighbors
    14 = max # of special neighbors
  read_restart CPU = 0.001 seconds
include ./input/angles_333-RV-32-vasp.mod
angle_style hybrid fourier cosine/periodic
angle_coeff 1 fourier 114.246973        0.343737        0.374972        0.281246
angle_coeff 2 fourier 157.882480        0.343737        0.374972        0.281246
angle_coeff 3 fourier 221.735285        0.343737        0.374972        0.281246
angle_coeff 4 fourier 58.020602        0.343737        0.374972        0.281246
angle_coeff 5 fourier 32.417871        0.343737        0.374972        0.281246
angle_coeff 6 fourier 83.380072        0.343737        0.374972        0.281246
angle_coeff 7 fourier 90.420412        0.343737        0.374972        0.281246
angle_coeff 8 fourier 75.498766        0.343737        0.374972        0.281246
angle_coeff 9 cosine/periodic 88.853997              -1               3

# Negative deformation

variable delta equal -0.02*13.5020044066054
variable deltaxy equal -0.02*xy
variable deltaxz equal -0.02*xz
variable deltayz equal -0.02*yz
change_box all y delta 0 -0.270040088132108 yz delta 0.0410760116334854 remap units box
Changing box ...
  triclinic box = (-0.18372239 -0.2076062 -0.21054204) to (15.892454 13.024358 17.735345) with tilt (-8.4645428 -0.14928176 -2.0538006)
  triclinic box = (-0.18372239 -0.2076062 -0.21054204) to (15.892454 13.024358 17.735345) with tilt (-8.4645428 -0.14928176 -2.0127246)

# Relax atoms positions

minimize 0 1e-10 100000 100000
Generated 28 of 28 mixed pair_coeff terms from arithmetic mixing rule
For more information see https://docs.lammps.org/err0027 (src/domain.cpp:1052)
Step          Temp          E_pair         E_mol          TotEng         Press
250429   297.91807     -406.75422      214.31097      100.60902      22536.996
Loop time of 0.0275192 on 1 procs for 38 steps with 331 atoms

Minimization stats:
  Stopping criterion = linesearch alpha is zero
  Energy initial, next-to-last, final =
  Force two-norm initial, final = 179.86034 22.778131
  Force max component initial, final = 24.391917 3.7488249
  Final line search alpha, max atom move = 1.3227952e-11 4.9589278e-11
  Iterations, force evaluations = 38 133

# Obtain new stress tensor

variable tmp equal pxx
variable pxx1 equal 1613.87421485949
variable tmp equal pyy
variable pyy1 equal 5399.20700287109
variable tmp equal pzz
variable pzz1 equal 1964.68520980119
variable tmp equal pxy
variable pxy1 equal -1509.0903117805
variable tmp equal pxz
variable pxz1 equal -89.1795552931546
variable tmp equal pyz
variable pyz1 equal 174.833255827239

# Compute elastic constant from pressure tensor

variable C1neg equal -10.8467681406327
variable C2neg equal 8.6445243360595
variable C3neg equal -6.5026552194762
variable C4neg equal -12.5347636165708
variable C5neg equal 0.324938354325697
variable C6neg equal -12.6467257488806

# Reset box and simulation parameters

clear
box tilt large

The 'box' command has been removed and will be ignored

read_restart restart_333-RV-32-vasp.equil
Reading restart file ...
  restart file = 10 Sep 2025, LAMMPS = 10 Sep 2025
  restoring atom style full from restart
  triclinic box = (-0.18372239 -0.2076062 -0.21054204) to (15.892454 13.294398 17.735345) with tilt (-8.4645428 -0.14928176 -2.0538006)
  restoring pair style lj/cut from restart
  restoring bond style harmonic from restart
  restoring angle style hybrid from restart
  restoring dihedral style harmonic from restart
  331 atoms
  336 bonds
  626 angles
  732 dihedrals
Finding 1-2 1-3 1-4 neighbors ...
     4 = max # of 1-2 neighbors
    10 = max # of 1-3 neighbors
    14 = max # of special neighbors
  read_restart CPU = 0.001 seconds
include ./input/angles_333-RV-32-vasp.mod
angle_style hybrid fourier cosine/periodic
angle_coeff 1 fourier 114.246973        0.343737        0.374972        0.281246
angle_coeff 2 fourier 157.882480        0.343737        0.374972        0.281246
angle_coeff 3 fourier 221.735285        0.343737        0.374972        0.281246
angle_coeff 4 fourier 58.020602        0.343737        0.374972        0.281246
angle_coeff 5 fourier 32.417871        0.343737        0.374972        0.281246
angle_coeff 6 fourier 83.380072        0.343737        0.374972        0.281246
angle_coeff 7 fourier 90.420412        0.343737        0.374972        0.281246
angle_coeff 8 fourier 75.498766        0.343737        0.374972        0.281246
angle_coeff 9 cosine/periodic 88.853997              -1               3

# Positive deformation

variable delta equal 0.02*13.5020044066054
variable deltaxy equal 0.02*xy
variable deltaxz equal 0.02*xz
variable deltayz equal 0.02*yz
change_box all y delta 0 0.270040088132108 yz delta -0.0410760116334854 remap units box
Changing box ...
  triclinic box = (-0.18372239 -0.2076062 -0.21054204) to (15.892454 13.564438 17.735345) with tilt (-8.4645428 -0.14928176 -2.0538006)
  triclinic box = (-0.18372239 -0.2076062 -0.21054204) to (15.892454 13.564438 17.735345) with tilt (-8.4645428 -0.14928176 -2.0948766)

# Relax atoms positions

minimize 0 1e-10 100000 100000
Generated 28 of 28 mixed pair_coeff terms from arithmetic mixing rule
For more information see https://docs.lammps.org/err0027 (src/domain.cpp:1052)
Step          Temp          E_pair         E_mol          TotEng         Press
250429   297.91807     -414.24504      220.83047      99.637701     -14905.169
Loop time of 0.0271883 on 1 procs for 43 steps with 331 atoms

Minimization stats:
  Stopping criterion = linesearch alpha is zero
  Energy initial, next-to-last, final =
  Force two-norm initial, final = 179.82927 19.059863
  Force max component initial, final = 20.426887 2.9780378
  Final line search alpha, max atom move = 3.0381011e-11 9.0475799e-11
  Iterations, force evaluations = 43 141

# Obtain new stress tensor

variable tmp equal pe
variable e1 equal -302.402584417899
variable tmp equal press
variable p1 equal -1128.5395341276
variable tmp equal pxx
variable pxx1 equal -1452.49804401096
variable tmp equal pyy
variable pyy1 equal -1659.45358517437
variable tmp equal pzz
variable pzz1 equal -273.66697319748
variable tmp equal pxy
variable pxy1 equal -358.464150219499
variable tmp equal pxz
variable pxz1 equal -519.313920325243
variable tmp equal pyz
variable pyz1 equal -13.2548931303081

# Compute elastic constant from pressure tensor

variable C1pos equal 26.178629434985
variable C2pos equal 26.6487786041678
variable C3pos equal 17.6944161344695
variable C4pos equal 13.4752043613585
variable C5pos equal 1.82573347083474
variable C6pos equal 6.89359494107559

# Combine positive and negative

variable C12 equal 0.5*(-10.8467681406327+26.178629434985)
variable C22 equal 0.5*(8.6445243360595+26.6487786041678)
variable C32 equal 0.5*(-6.5026552194762+17.6944161344695)
variable C42 equal 0.5*(-12.5347636165708+13.4752043613585)
variable C52 equal 0.5*(0.324938354325697+1.82573347083474)
variable C62 equal 0.5*(-12.6467257488806+6.89359494107559)

# Delete dir to make sure it is not reused

variable dir delete

# uzz Perturbation

variable dir equal 3
include ./input/displace_333-RV-32-vasp.mod
variable len0 equal 17.9458870842928

# Reset box and simulation parameters

clear
box tilt large

The 'box' command has been removed and will be ignored

read_restart restart_333-RV-32-vasp.equil
Reading restart file ...
  restart file = 10 Sep 2025, LAMMPS = 10 Sep 2025
  restoring atom style full from restart
  triclinic box = (-0.18372239 -0.2076062 -0.21054204) to (15.892454 13.294398 17.735345) with tilt (-8.4645428 -0.14928176 -2.0538006)
  restoring pair style lj/cut from restart
  restoring bond style harmonic from restart
  restoring angle style hybrid from restart
  restoring dihedral style harmonic from restart
  331 atoms
  336 bonds
  626 angles
  732 dihedrals
Finding 1-2 1-3 1-4 neighbors ...
     4 = max # of 1-2 neighbors
    10 = max # of 1-3 neighbors
    14 = max # of special neighbors
  read_restart CPU = 0.001 seconds
include ./input/angles_333-RV-32-vasp.mod
angle_style hybrid fourier cosine/periodic
angle_coeff 1 fourier 114.246973        0.343737        0.374972        0.281246
angle_coeff 2 fourier 157.882480        0.343737        0.374972        0.281246
angle_coeff 3 fourier 221.735285        0.343737        0.374972        0.281246
angle_coeff 4 fourier 58.020602        0.343737        0.374972        0.281246
angle_coeff 5 fourier 32.417871        0.343737        0.374972        0.281246
angle_coeff 6 fourier 83.380072        0.343737        0.374972        0.281246
angle_coeff 7 fourier 90.420412        0.343737        0.374972        0.281246
angle_coeff 8 fourier 75.498766        0.343737        0.374972        0.281246
angle_coeff 9 cosine/periodic 88.853997              -1               3

# Negative deformation

variable delta equal -0.02*17.9458870842928
variable deltaxy equal -0.02*xy
variable deltaxz equal -0.02*xz
variable deltayz equal -0.02*yz
change_box all z delta 0 -0.358917741685856 remap units box
Changing box ...
  triclinic box = (-0.18372239 -0.2076062 -0.21054204) to (15.892454 13.294398 17.376427) with tilt (-8.4645428 -0.14928176 -2.0538006)

# Relax atoms positions

minimize 0 1e-10 100000 100000
Generated 28 of 28 mixed pair_coeff terms from arithmetic mixing rule
For more information see https://docs.lammps.org/err0027 (src/domain.cpp:1052)
Step          Temp          E_pair         E_mol          TotEng         Press
250429   297.91807     -405.5347       214.8226       102.34017      23765.806
Loop time of 0.0277337 on 1 procs for 40 steps with 331 atoms

Minimization stats:
  Stopping criterion = linesearch alpha is zero
  Energy initial, next-to-last, final =
  Force two-norm initial, final = 179.47184 20.667553
  Force max component initial, final = 21.546728 2.8117183
  Final line search alpha, max atom move = 1.5269792e-11 4.2934354e-11
  Iterations, force evaluations = 40 137

# Obtain new stress tensor

variable tmp equal pxx
variable pxx1 equal 1959.2110138686
variable tmp equal pyy
variable pyy1 equal 2807.54109383289
variable tmp equal pzz
variable pzz1 equal 6064.8131312819
variable tmp equal pxy
variable pxy1 equal -764.968053869592
variable tmp equal pxz
variable pxz1 equal 367.402291701034
variable tmp equal pyz
variable pyz1 equal 182.92095934298

# Compute elastic constant from pressure tensor

variable C1neg equal -9.1200841455872
variable C2neg equal -4.3138052091315
variable C3neg equal 13.9979843879273
variable C4neg equal -12.4943250989921
variable C5neg equal 2.60784758929664
variable C6neg equal -8.92611445932606

# Reset box and simulation parameters

clear
box tilt large

The 'box' command has been removed and will be ignored

read_restart restart_333-RV-32-vasp.equil
Reading restart file ...
  restart file = 10 Sep 2025, LAMMPS = 10 Sep 2025
  restoring atom style full from restart
  triclinic box = (-0.18372239 -0.2076062 -0.21054204) to (15.892454 13.294398 17.735345) with tilt (-8.4645428 -0.14928176 -2.0538006)
  restoring pair style lj/cut from restart
  restoring bond style harmonic from restart
  restoring angle style hybrid from restart
  restoring dihedral style harmonic from restart
  331 atoms
  336 bonds
  626 angles
  732 dihedrals
Finding 1-2 1-3 1-4 neighbors ...
     4 = max # of 1-2 neighbors
    10 = max # of 1-3 neighbors
    14 = max # of special neighbors
  read_restart CPU = 0.001 seconds
include ./input/angles_333-RV-32-vasp.mod
angle_style hybrid fourier cosine/periodic
angle_coeff 1 fourier 114.246973        0.343737        0.374972        0.281246
angle_coeff 2 fourier 157.882480        0.343737        0.374972        0.281246
angle_coeff 3 fourier 221.735285        0.343737        0.374972        0.281246
angle_coeff 4 fourier 58.020602        0.343737        0.374972        0.281246
angle_coeff 5 fourier 32.417871        0.343737        0.374972        0.281246
angle_coeff 6 fourier 83.380072        0.343737        0.374972        0.281246
angle_coeff 7 fourier 90.420412        0.343737        0.374972        0.281246
angle_coeff 8 fourier 75.498766        0.343737        0.374972        0.281246
angle_coeff 9 cosine/periodic 88.853997              -1               3

# Positive deformation

variable delta equal 0.02*17.9458870842928
variable deltaxy equal 0.02*xy
variable deltaxz equal 0.02*xz
variable deltayz equal 0.02*yz
change_box all z delta 0 0.358917741685856 remap units box
Changing box ...
  triclinic box = (-0.18372239 -0.2076062 -0.21054204) to (15.892454 13.294398 18.094263) with tilt (-8.4645428 -0.14928176 -2.0538006)

# Relax atoms positions

minimize 0 1e-10 100000 100000
Generated 28 of 28 mixed pair_coeff terms from arithmetic mixing rule
For more information see https://docs.lammps.org/err0027 (src/domain.cpp:1052)
Step          Temp          E_pair         E_mol          TotEng         Press
250429   297.91807     -415.0563       223.41227      101.40824     -16096.697
Loop time of 0.0252995 on 1 procs for 37 steps with 331 atoms

Minimization stats:
  Stopping criterion = linesearch alpha is zero
  Energy initial, next-to-last, final =
  Force two-norm initial, final = 176.74238 21.260688
  Force max component initial, final = 19.321969 3.6837235
  Final line search alpha, max atom move = 1.5855532e-11 5.8407394e-11
  Iterations, force evaluations = 37 131

# Obtain new stress tensor

variable tmp equal pe
variable e1 equal -299.620816122884
variable tmp equal press
variable p1 equal -1349.45751569792
variable tmp equal pxx
variable pxx1 equal -1324.14848774297
variable tmp equal pyy
variable pyy1 equal 781.201648869916
variable tmp equal pzz
variable pzz1 equal -3505.4257082207
variable tmp equal pxy
variable pxy1 equal -854.853116539674
variable tmp equal pxz
variable pxz1 equal -1370.26830254317
variable tmp equal pyz
variable pyz1 equal 333.075360513431

# Compute elastic constant from pressure tensor

variable C1pos equal 25.5368816536451
variable C2pos equal 14.4455024339464
variable C3pos equal 33.8532098095856
variable C4pos equal 11.7435530931398
variable C5pos equal 6.08050538192438
variable C6pos equal 9.37553977267647

# Combine positive and negative

variable C13 equal 0.5*(-9.1200841455872+25.5368816536451)
variable C23 equal 0.5*(-4.3138052091315+14.4455024339464)
variable C33 equal 0.5*(13.9979843879273+33.8532098095856)
variable C43 equal 0.5*(-12.4943250989921+11.7435530931398)
variable C53 equal 0.5*(2.60784758929664+6.08050538192438)
variable C63 equal 0.5*(-8.92611445932606+9.37553977267647)

# Delete dir to make sure it is not reused

variable dir delete

# uyz Perturbation

variable dir equal 4
include ./input/displace_333-RV-32-vasp.mod
variable len0 equal 17.9458870842928

# Reset box and simulation parameters

clear
box tilt large

The 'box' command has been removed and will be ignored

read_restart restart_333-RV-32-vasp.equil
Reading restart file ...
  restart file = 10 Sep 2025, LAMMPS = 10 Sep 2025
  restoring atom style full from restart
  triclinic box = (-0.18372239 -0.2076062 -0.21054204) to (15.892454 13.294398 17.735345) with tilt (-8.4645428 -0.14928176 -2.0538006)
  restoring pair style lj/cut from restart
  restoring bond style harmonic from restart
  restoring angle style hybrid from restart
  restoring dihedral style harmonic from restart
  331 atoms
  336 bonds
  626 angles
  732 dihedrals
Finding 1-2 1-3 1-4 neighbors ...
     4 = max # of 1-2 neighbors
    10 = max # of 1-3 neighbors
    14 = max # of special neighbors
  read_restart CPU = 0.001 seconds
include ./input/angles_333-RV-32-vasp.mod
angle_style hybrid fourier cosine/periodic
angle_coeff 1 fourier 114.246973        0.343737        0.374972        0.281246
angle_coeff 2 fourier 157.882480        0.343737        0.374972        0.281246
angle_coeff 3 fourier 221.735285        0.343737        0.374972        0.281246
angle_coeff 4 fourier 58.020602        0.343737        0.374972        0.281246
angle_coeff 5 fourier 32.417871        0.343737        0.374972        0.281246
angle_coeff 6 fourier 83.380072        0.343737        0.374972        0.281246
angle_coeff 7 fourier 90.420412        0.343737        0.374972        0.281246
angle_coeff 8 fourier 75.498766        0.343737        0.374972        0.281246
angle_coeff 9 cosine/periodic 88.853997              -1               3

# Negative deformation

variable delta equal -0.02*17.9458870842928
variable deltaxy equal -0.02*xy
variable deltaxz equal -0.02*xz
variable deltayz equal -0.02*yz
change_box all yz delta -0.358917741685856 remap units box
Changing box ...
  triclinic box = (-0.18372239 -0.2076062 -0.21054204) to (15.892454 13.294398 17.735345) with tilt (-8.4645428 -0.14928176 -2.4127183)

# Relax atoms positions

minimize 0 1e-10 100000 100000
Generated 28 of 28 mixed pair_coeff terms from arithmetic mixing rule
For more information see https://docs.lammps.org/err0027 (src/domain.cpp:1052)
Step          Temp          E_pair         E_mol          TotEng         Press
250429   297.91807     -411.15277      208.94061      90.840106      3734.5469
Loop time of 0.0278994 on 1 procs for 41 steps with 331 atoms

Minimization stats:
  Stopping criterion = linesearch alpha is zero
  Energy initial, next-to-last, final =
  Force two-norm initial, final = 145.90985 20.699862
  Force max component initial, final = 15.139751 3.0192477
  Final line search alpha, max atom move = 1.4717774e-11 4.4436605e-11
  Iterations, force evaluations = 41 139

# Obtain new stress tensor

variable tmp equal pxx
variable pxx1 equal -270.485654085031
variable tmp equal pyy
variable pyy1 equal 1474.5588969279
variable tmp equal pzz
variable pzz1 equal 813.560517263066
variable tmp equal pxy
variable pxy1 equal -677.98152978699
variable tmp equal pxz
variable pxz1 equal -158.786525839401
variable tmp equal pyz
variable pyz1 equal 907.196261364581

# Compute elastic constant from pressure tensor

variable C1neg equal -20.2685674853554
variable C2neg equal -10.9787161936565
variable C3neg equal -12.2582786821668
variable C4neg equal -8.87294858888404
variable C5neg equal -0.023096498405535
variable C6neg equal -8.49118183891305

# Reset box and simulation parameters

clear
box tilt large

The 'box' command has been removed and will be ignored

read_restart restart_333-RV-32-vasp.equil
Reading restart file ...
  restart file = 10 Sep 2025, LAMMPS = 10 Sep 2025
  restoring atom style full from restart
  triclinic box = (-0.18372239 -0.2076062 -0.21054204) to (15.892454 13.294398 17.735345) with tilt (-8.4645428 -0.14928176 -2.0538006)
  restoring pair style lj/cut from restart
  restoring bond style harmonic from restart
  restoring angle style hybrid from restart
  restoring dihedral style harmonic from restart
  331 atoms
  336 bonds
  626 angles
  732 dihedrals
Finding 1-2 1-3 1-4 neighbors ...
     4 = max # of 1-2 neighbors
    10 = max # of 1-3 neighbors
    14 = max # of special neighbors
  read_restart CPU = 0.001 seconds
include ./input/angles_333-RV-32-vasp.mod
angle_style hybrid fourier cosine/periodic
angle_coeff 1 fourier 114.246973        0.343737        0.374972        0.281246
angle_coeff 2 fourier 157.882480        0.343737        0.374972        0.281246
angle_coeff 3 fourier 221.735285        0.343737        0.374972        0.281246
angle_coeff 4 fourier 58.020602        0.343737        0.374972        0.281246
angle_coeff 5 fourier 32.417871        0.343737        0.374972        0.281246
angle_coeff 6 fourier 83.380072        0.343737        0.374972        0.281246
angle_coeff 7 fourier 90.420412        0.343737        0.374972        0.281246
angle_coeff 8 fourier 75.498766        0.343737        0.374972        0.281246
angle_coeff 9 cosine/periodic 88.853997              -1               3

# Positive deformation

variable delta equal 0.02*17.9458870842928
variable deltaxy equal 0.02*xy
variable deltaxz equal 0.02*xz
variable deltayz equal 0.02*yz
change_box all yz delta 0.358917741685856 remap units box
Changing box ...
  triclinic box = (-0.18372239 -0.2076062 -0.21054204) to (15.892454 13.294398 17.735345) with tilt (-8.4645428 -0.14928176 -1.6948828)

# Relax atoms positions

minimize 0 1e-10 100000 100000
Generated 28 of 28 mixed pair_coeff terms from arithmetic mixing rule
For more information see https://docs.lammps.org/err0027 (src/domain.cpp:1052)
Step          Temp          E_pair         E_mol          TotEng         Press
250429   297.91807     -411.6769       203.235        84.610372      3034.9496
Loop time of 0.0271445 on 1 procs for 40 steps with 331 atoms

Minimization stats:
  Stopping criterion = linesearch alpha is zero
  Energy initial, next-to-last, final =
  Force two-norm initial, final = 146.71585 20.974118
  Force max component initial, final = 16.549034 3.0264832
  Final line search alpha, max atom move = 1.4828469e-11 4.4878112e-11
  Iterations, force evaluations = 40 137

# Obtain new stress tensor

variable tmp equal pe
variable e1 equal -305.919888321603
variable tmp equal press
variable p1 equal 727.581339654515
variable tmp equal pxx
variable pxx1 equal 108.015533816029
variable tmp equal pyy
variable pyy1 equal 1367.30220119734
variable tmp equal pzz
variable pzz1 equal 707.426283950172
variable tmp equal pxy
variable pxy1 equal -922.973008792235
variable tmp equal pxz
variable pxz1 equal -410.23835617809
variable tmp equal pyz
variable pyz1 equal -419.398288056339

# Compute elastic constant from pressure tensor

variable C1pos equal 18.3760615458501
variable C2pos equal 11.5149996723092
variable C3pos equal 12.7889498487313
variable C4pos equal 15.5059213359886
variable C5pos equal 1.28035565009898
variable C6pos equal 9.71613923393928

# Combine positive and negative

variable C14 equal 0.5*(-20.2685674853554+18.3760615458501)
variable C24 equal 0.5*(-10.9787161936565+11.5149996723092)
variable C34 equal 0.5*(-12.2582786821668+12.7889498487313)
variable C44 equal 0.5*(-8.87294858888404+15.5059213359886)
variable C54 equal 0.5*(-0.023096498405535+1.28035565009898)
variable C64 equal 0.5*(-8.49118183891305+9.71613923393928)

# Delete dir to make sure it is not reused

variable dir delete

# uxz Perturbation

variable dir equal 5
include ./input/displace_333-RV-32-vasp.mod
variable len0 equal 17.9458870842928

# Reset box and simulation parameters

clear
box tilt large

The 'box' command has been removed and will be ignored

read_restart restart_333-RV-32-vasp.equil
Reading restart file ...
  restart file = 10 Sep 2025, LAMMPS = 10 Sep 2025
  restoring atom style full from restart
  triclinic box = (-0.18372239 -0.2076062 -0.21054204) to (15.892454 13.294398 17.735345) with tilt (-8.4645428 -0.14928176 -2.0538006)
  restoring pair style lj/cut from restart
  restoring bond style harmonic from restart
  restoring angle style hybrid from restart
  restoring dihedral style harmonic from restart
  331 atoms
  336 bonds
  626 angles
  732 dihedrals
Finding 1-2 1-3 1-4 neighbors ...
     4 = max # of 1-2 neighbors
    10 = max # of 1-3 neighbors
    14 = max # of special neighbors
  read_restart CPU = 0.001 seconds
include ./input/angles_333-RV-32-vasp.mod
angle_style hybrid fourier cosine/periodic
angle_coeff 1 fourier 114.246973        0.343737        0.374972        0.281246
angle_coeff 2 fourier 157.882480        0.343737        0.374972        0.281246
angle_coeff 3 fourier 221.735285        0.343737        0.374972        0.281246
angle_coeff 4 fourier 58.020602        0.343737        0.374972        0.281246
angle_coeff 5 fourier 32.417871        0.343737        0.374972        0.281246
angle_coeff 6 fourier 83.380072        0.343737        0.374972        0.281246
angle_coeff 7 fourier 90.420412        0.343737        0.374972        0.281246
angle_coeff 8 fourier 75.498766        0.343737        0.374972        0.281246
angle_coeff 9 cosine/periodic 88.853997              -1               3

# Negative deformation

variable delta equal -0.02*17.9458870842928
variable deltaxy equal -0.02*xy
variable deltaxz equal -0.02*xz
variable deltayz equal -0.02*yz
change_box all xz delta -0.358917741685856 remap units box
Changing box ...
  triclinic box = (-0.18372239 -0.2076062 -0.21054204) to (15.892454 13.294398 17.735345) with tilt (-8.4645428 -0.5081995 -2.0538006)

# Relax atoms positions

minimize 0 1e-10 100000 100000
Generated 28 of 28 mixed pair_coeff terms from arithmetic mixing rule
For more information see https://docs.lammps.org/err0027 (src/domain.cpp:1052)
Step          Temp          E_pair         E_mol          TotEng         Press
250429   297.91807     -411.05925      206.65865      88.651674      3580.522
Loop time of 0.0273366 on 1 procs for 42 steps with 331 atoms

Minimization stats:
  Stopping criterion = linesearch alpha is zero
  Energy initial, next-to-last, final =
  Force two-norm initial, final = 152.9405 19.825531
  Force max component initial, final = 18.560417 3.9782204
  Final line search alpha, max atom move = 2.9607461e-11 1.17785e-10
  Iterations, force evaluations = 42 139

# Obtain new stress tensor

variable tmp equal pxx
variable pxx1 equal 187.625514504181
variable tmp equal pyy
variable pyy1 equal 1776.34512307036
variable tmp equal pzz
variable pzz1 equal 1256.50291092136
variable tmp equal pxy
variable pxy1 equal -891.710969507073
variable tmp equal pxz
variable pxz1 equal 907.654149812703
variable tmp equal pyz
variable pyz1 equal 159.119376247525

# Compute elastic constant from pressure tensor

variable C1neg equal -17.9780116424093
variable C2neg equal -9.46978506294415
variable C3neg equal -10.0435667138754
variable C4neg equal -12.6133330144693
variable C5neg equal 5.30910687985499
variable C6neg equal -9.55982903751346

# Reset box and simulation parameters

clear
box tilt large

The 'box' command has been removed and will be ignored

read_restart restart_333-RV-32-vasp.equil
Reading restart file ...
  restart file = 10 Sep 2025, LAMMPS = 10 Sep 2025
  restoring atom style full from restart
  triclinic box = (-0.18372239 -0.2076062 -0.21054204) to (15.892454 13.294398 17.735345) with tilt (-8.4645428 -0.14928176 -2.0538006)
  restoring pair style lj/cut from restart
  restoring bond style harmonic from restart
  restoring angle style hybrid from restart
  restoring dihedral style harmonic from restart
  331 atoms
  336 bonds
  626 angles
  732 dihedrals
Finding 1-2 1-3 1-4 neighbors ...
     4 = max # of 1-2 neighbors
    10 = max # of 1-3 neighbors
    14 = max # of special neighbors
  read_restart CPU = 0.001 seconds
include ./input/angles_333-RV-32-vasp.mod
angle_style hybrid fourier cosine/periodic
angle_coeff 1 fourier 114.246973        0.343737        0.374972        0.281246
angle_coeff 2 fourier 157.882480        0.343737        0.374972        0.281246
angle_coeff 3 fourier 221.735285        0.343737        0.374972        0.281246
angle_coeff 4 fourier 58.020602        0.343737        0.374972        0.281246
angle_coeff 5 fourier 32.417871        0.343737        0.374972        0.281246
angle_coeff 6 fourier 83.380072        0.343737        0.374972        0.281246
angle_coeff 7 fourier 90.420412        0.343737        0.374972        0.281246
angle_coeff 8 fourier 75.498766        0.343737        0.374972        0.281246
angle_coeff 9 cosine/periodic 88.853997              -1               3

# Positive deformation

variable delta equal 0.02*17.9458870842928
variable deltaxy equal 0.02*xy
variable deltaxz equal 0.02*xz
variable deltayz equal 0.02*yz
change_box all xz delta 0.358917741685856 remap units box
Changing box ...
  triclinic box = (-0.18372239 -0.2076062 -0.21054204) to (15.892454 13.294398 17.735345) with tilt (-8.4645428 0.20963598 -2.0538006)

# Relax atoms positions

minimize 0 1e-10 100000 100000
Generated 28 of 28 mixed pair_coeff terms from arithmetic mixing rule
For more information see https://docs.lammps.org/err0027 (src/domain.cpp:1052)
Step          Temp          E_pair         E_mol          TotEng         Press
250429   297.91807     -411.12422      206.43853      88.366574      3194.3983
Loop time of 0.0265009 on 1 procs for 34 steps with 331 atoms

Minimization stats:
  Stopping criterion = linesearch alpha is zero
  Energy initial, next-to-last, final =
  Force two-norm initial, final = 151.88561 22.84032
  Force max component initial, final = 14.482328 4.1179096
  Final line search alpha, max atom move = 1.7269808e-11 7.1115508e-11
  Iterations, force evaluations = 34 125

# Obtain new stress tensor

variable tmp equal pe
variable e1 equal -303.624912657403
variable tmp equal press
variable p1 equal 318.924411821379
variable tmp equal pxx
variable pxx1 equal -362.927751004469
variable tmp equal pyy
variable pyy1 equal 1585.2461534502
variable tmp equal pzz
variable pzz1 equal -265.545166981592
variable tmp equal pxy
variable pxy1 equal -776.593460266101
variable tmp equal pxz
variable pxz1 equal -2037.92997179328
variable tmp equal pyz
variable pyz1 equal 560.763657282312

# Compute elastic constant from pressure tensor

variable C1pos equal 20.7307779699525
variable C2pos equal 10.4252799110449
variable C3pos equal 17.6538071033901
variable C4pos equal 10.6051116092954
variable C5pos equal 9.41881372817493
variable C6pos equal 8.98424149130861

# Combine positive and negative

variable C15 equal 0.5*(-17.9780116424093+20.7307779699525)
variable C25 equal 0.5*(-9.46978506294415+10.4252799110449)
variable C35 equal 0.5*(-10.0435667138754+17.6538071033901)
variable C45 equal 0.5*(-12.6133330144693+10.6051116092954)
variable C55 equal 0.5*(5.30910687985499+9.41881372817493)
variable C65 equal 0.5*(-9.55982903751346+8.98424149130861)

# Delete dir to make sure it is not reused

variable dir delete

# uxy Perturbation

variable dir equal 6
include ./input/displace_333-RV-32-vasp.mod
variable len0 equal 13.5020044066054

# Reset box and simulation parameters

clear
box tilt large

The 'box' command has been removed and will be ignored

read_restart restart_333-RV-32-vasp.equil
Reading restart file ...
  restart file = 10 Sep 2025, LAMMPS = 10 Sep 2025
  restoring atom style full from restart
  triclinic box = (-0.18372239 -0.2076062 -0.21054204) to (15.892454 13.294398 17.735345) with tilt (-8.4645428 -0.14928176 -2.0538006)
  restoring pair style lj/cut from restart
  restoring bond style harmonic from restart
  restoring angle style hybrid from restart
  restoring dihedral style harmonic from restart
  331 atoms
  336 bonds
  626 angles
  732 dihedrals
Finding 1-2 1-3 1-4 neighbors ...
     4 = max # of 1-2 neighbors
    10 = max # of 1-3 neighbors
    14 = max # of special neighbors
  read_restart CPU = 0.001 seconds
include ./input/angles_333-RV-32-vasp.mod
angle_style hybrid fourier cosine/periodic
angle_coeff 1 fourier 114.246973        0.343737        0.374972        0.281246
angle_coeff 2 fourier 157.882480        0.343737        0.374972        0.281246
angle_coeff 3 fourier 221.735285        0.343737        0.374972        0.281246
angle_coeff 4 fourier 58.020602        0.343737        0.374972        0.281246
angle_coeff 5 fourier 32.417871        0.343737        0.374972        0.281246
angle_coeff 6 fourier 83.380072        0.343737        0.374972        0.281246
angle_coeff 7 fourier 90.420412        0.343737        0.374972        0.281246
angle_coeff 8 fourier 75.498766        0.343737        0.374972        0.281246
angle_coeff 9 cosine/periodic 88.853997              -1               3

# Negative deformation

variable delta equal -0.02*13.5020044066054
variable deltaxy equal -0.02*xy
variable deltaxz equal -0.02*xz
variable deltayz equal -0.02*yz
change_box all xy delta -0.270040088132108 remap units box
Changing box ...
  triclinic box = (-0.18372239 -0.2076062 -0.21054204) to (15.892454 13.294398 17.735345) with tilt (-8.7345829 -0.14928176 -2.0538006)

# Relax atoms positions

minimize 0 1e-10 100000 100000
Generated 28 of 28 mixed pair_coeff terms from arithmetic mixing rule
For more information see https://docs.lammps.org/err0027 (src/domain.cpp:1052)
Step          Temp          E_pair         E_mol          TotEng         Press
250429   297.91807     -411.5487       207.05899      88.562561      3703.6288
Loop time of 0.0370083 on 1 procs for 58 steps with 331 atoms

Minimization stats:
  Stopping criterion = linesearch alpha is zero
  Energy initial, next-to-last, final =
  Force two-norm initial, final = 151.49001 13.779366
  Force max component initial, final = 14.251876 2.4255853
  Final line search alpha, max atom move = 6.2336265e-11 1.5120193e-10
  Iterations, force evaluations = 58 169

# Obtain new stress tensor

variable tmp equal pxx
variable pxx1 equal -1321.02992539657
variable tmp equal pyy
variable pyy1 equal 922.940820612509
variable tmp equal pzz
variable pzz1 equal 632.039801916118
variable tmp equal pxy
variable pxy1 equal 213.18450358226
variable tmp equal pxz
variable pxz1 equal 434.563003236023
variable tmp equal pyz
variable pyz1 equal 273.726270767536

# Compute elastic constant from pressure tensor

variable C1neg equal -25.521288841913
variable C2neg equal -13.7368065752334
variable C3neg equal -13.1658822589016
variable C4neg equal -12.0402985418693
variable C5neg equal 2.94365114697159
variable C6neg equal -4.0353516720668

# Reset box and simulation parameters

clear
box tilt large

The 'box' command has been removed and will be ignored

read_restart restart_333-RV-32-vasp.equil
Reading restart file ...
  restart file = 10 Sep 2025, LAMMPS = 10 Sep 2025
  restoring atom style full from restart
  triclinic box = (-0.18372239 -0.2076062 -0.21054204) to (15.892454 13.294398 17.735345) with tilt (-8.4645428 -0.14928176 -2.0538006)
  restoring pair style lj/cut from restart
  restoring bond style harmonic from restart
  restoring angle style hybrid from restart
  restoring dihedral style harmonic from restart
  331 atoms
  336 bonds
  626 angles
  732 dihedrals
Finding 1-2 1-3 1-4 neighbors ...
     4 = max # of 1-2 neighbors
    10 = max # of 1-3 neighbors
    14 = max # of special neighbors
  read_restart CPU = 0.001 seconds
include ./input/angles_333-RV-32-vasp.mod
angle_style hybrid fourier cosine/periodic
angle_coeff 1 fourier 114.246973        0.343737        0.374972        0.281246
angle_coeff 2 fourier 157.882480        0.343737        0.374972        0.281246
angle_coeff 3 fourier 221.735285        0.343737        0.374972        0.281246
angle_coeff 4 fourier 58.020602        0.343737        0.374972        0.281246
angle_coeff 5 fourier 32.417871        0.343737        0.374972        0.281246
angle_coeff 6 fourier 83.380072        0.343737        0.374972        0.281246
angle_coeff 7 fourier 90.420412        0.343737        0.374972        0.281246
angle_coeff 8 fourier 75.498766        0.343737        0.374972        0.281246
angle_coeff 9 cosine/periodic 88.853997              -1               3

# Positive deformation

variable delta equal 0.02*13.5020044066054
variable deltaxy equal 0.02*xy
variable deltaxz equal 0.02*xz
variable deltayz equal 0.02*yz
change_box all xy delta 0.270040088132108 remap units box
Changing box ...
  triclinic box = (-0.18372239 -0.2076062 -0.21054204) to (15.892454 13.294398 17.735345) with tilt (-8.1945028 -0.14928176 -2.0538006)

# Relax atoms positions

minimize 0 1e-10 100000 100000
Generated 28 of 28 mixed pair_coeff terms from arithmetic mixing rule
For more information see https://docs.lammps.org/err0027 (src/domain.cpp:1052)
Step          Temp          E_pair         E_mol          TotEng         Press
250429   297.91807     -411.61164      205.13905      86.579679      3065.878
Loop time of 0.0269361 on 1 procs for 41 steps with 331 atoms

Minimization stats:
  Stopping criterion = linesearch alpha is zero
  Energy initial, next-to-last, final =
  Force two-norm initial, final = 149.16756 21.5996
  Force max component initial, final = 16.034259 4.4314332
  Final line search alpha, max atom move = 2.4572559e-11 1.0889165e-10
  Iterations, force evaluations = 41 137

# Obtain new stress tensor

variable tmp equal pe
variable e1 equal -305.188825277615
variable tmp equal press
variable p1 equal 879.764138863548
variable tmp equal pxx
variable pxx1 equal 302.48243253387
variable tmp equal pyy
variable pyy1 equal 1852.22806551028
variable tmp equal pzz
variable pzz1 equal 484.581918546488
variable tmp equal pxy
variable pxy1 equal -2052.08805630222
variable tmp equal pxz
variable pxz1 equal -302.752833020667
variable tmp equal pyz
variable pyz1 equal 43.927203530109

# Compute elastic constant from pressure tensor

variable C1pos equal 17.4037270522608
variable C2pos equal 9.09037035074455
variable C3pos equal 13.9031716757497
variable C4pos equal 13.1892938780564
variable C5pos equal 0.742928034311865
variable C6pos equal 15.3617144714892

# Combine positive and negative

variable C16 equal 0.5*(-25.521288841913+17.4037270522608)
variable C26 equal 0.5*(-13.7368065752334+9.09037035074455)
variable C36 equal 0.5*(-13.1658822589016+13.9031716757497)
variable C46 equal 0.5*(-12.0402985418693+13.1892938780564)
variable C56 equal 0.5*(2.94365114697159+0.742928034311865)
variable C66 equal 0.5*(-4.0353516720668+15.3617144714892)

# Delete dir to make sure it is not reused

variable dir delete

# Output final values

variable C11all equal 22.4461466879614
variable C22all equal 17.6466514701136
variable C33all equal 23.9255970987564

variable C12all equal 0.5*(7.66593064717615+6.03767711211925)
variable C13all equal 0.5*(8.20839875402895+8.22060619453547)
variable C23all equal 0.5*(5.06584861240745+5.59588045749665)

variable C44all equal 3.31648637355228
variable C55all equal 7.36396030401496
variable C66all equal 5.6631813997112

variable C14all equal 0.5*(-0.946252969752651+-0.2679621664117)
variable C15all equal 0.5*(1.3763831637716+1.81987593757164)
variable C16all equal 0.5*(-4.0587808948261+-2.53248090524611)

variable C24all equal 0.5*(0.26814173932635+0.47022037239385)
variable C25all equal 0.5*(0.477747424050375+1.07533591258022)
variable C26all equal 0.5*(-2.32321811224443+-2.87656540390251)

variable C34all equal 0.5*(0.265335583282249+-0.37538600292615)
variable C35all equal 0.5*(3.80512019475735+4.34417648561051)
variable C36all equal 0.5*(0.36864470842405+0.224712656675205)

variable C45all equal 0.5*(-1.00411070258695+0.628629575846722)
variable C46all equal 0.5*(0.57449766809355+0.612478697513115)
variable C56all equal 0.5*(1.84328959064173+-0.287793773102424)

# Average moduli for cubic crystals

variable C11cubic equal (22.4461466879614+17.6466514701136+23.9255970987564)/3.0
variable C12cubic equal (6.8518038796477+8.21450247428221+5.33086453495205)/3.0
variable C44cubic equal (3.31648637355228+7.36396030401496+5.6631813997112)/3.0

variable bulkmodulus equal (21.3394650856105+2*6.79905696296065)/3.0
variable shearmodulus1 equal 5.44787602575948
variable shearmodulus2 equal (21.3394650856105-6.79905696296065)/2.0
variable poissonratio equal 1.0/(1.0+21.3394650856105/6.79905696296065)

Elastic Constant 1 1 = 22.4461466879614
Elastic Constant 2 2 = 17.6466514701136
Elastic Constant 3 3 = 23.9255970987564

Elastic Constant 1 2 = 6.8518038796477
Elastic Constant 1 3 = 8.21450247428221
Elastic Constant 2 3 = 5.33086453495205

Elastic Constant 4 4 = 3.31648637355228
Elastic Constant 5 5 = 7.36396030401496
Elastic Constant 6 6 = 5.6631813997112

Elastic Constant 1 4 = -0.607107568082176
Elastic Constant 1 5 = 1.59812955067162
Elastic Constant 1 6 = -3.29563090003611

Elastic Constant 2 4 = 0.3691810558601
Elastic Constant 2 5 = 0.776541668315297
Elastic Constant 2 6 = -2.59989175807347

Elastic Constant 3 4 = -0.0550252098219505
Elastic Constant 3 5 = 4.07464834018393
Elastic Constant 3 6 = 0.296678682549627

Elastic Constant 4 5 = -0.187740563370114
Elastic Constant 4 6 = 0.593488182803332
Elastic Constant 5 6 = 0.777747908769653

Bulk Modulus = 11.6458596705106 GPa
Shear Modulus 1 = 5.44787602575948 GPa
Shear Modulus 2 = 7.27020406132492 GPa
Poisson Ratio = 0.241628076670996

variable rho equal density
density (g/cm^3) = 1.29515967629681
