units           real
atom_style      full
boundary        p p p

pair_style      lj/cut 5.000
bond_style      harmonic
angle_style     hybrid cosine/periodic fourier
dihedral_style  harmonic

dielectric      1.0
special_bonds   lj/coul 0.0 0.0 1.0
pair_modify     tail yes mix arithmetic
box tilt        large

The 'box' command has been removed and will be ignored

read_data       ./dat/data.333U-50C-48-vasp
Reading data file ...
  triclinic box = (0 0 0) to (16.722229 13.589011 17.316128) with tilt (-7.346396 -0.307144 -0.017989)
  reading atoms ...
  386 atoms
  scanning bonds ...
  scanning angles ...
  scanning dihedrals ...
  triclinic box = (0 0 0) to (16.722229 13.589011 17.316128) with tilt (-7.346396 -0.307144 -0.017989)
  reading bonds ...
  411 bonds
  reading angles ...
  781 angles
  reading dihedrals ...
  987 dihedrals
Finding 1-2 1-3 1-4 neighbors ...
     4 = max # of 1-2 neighbors
     8 = max # of 1-3 neighbors
    12 = max # of special neighbors

#### Atom Groupings ####
group           fram     id   1:386
386 atoms in group fram
#### END Atom Groupings ####

compute am all property/atom mass
dump        atom_pos all extxyz 100 ./output/333U-50C-48-vasp.lammpstrj
dump_modify atom_pos element Si H C O mass yes
thermo          1000
thermo_style    custom step temp pe ke etotal press vol density

variable up equal 2e-2
variable cfac equal 1.0e-4
variable cunits string GPa

# Define minimization parameters
variable etol equal 0.0
variable ftol equal 1.0e-10
variable maxiter equal 100000
variable maxeval equal 100000
variable dmax equal 1.0e-2

variable temp equal 300.0
variable thermal_damp index 100.0
variable pressure_damp index 500.0

fix relax all box/relax aniso 0.0 vmax 0.001
unfix relax
minimize 0 1e-10 100000 100000
Generated 6 of 6 mixed pair_coeff terms from arithmetic mixing rule
For more information see https://docs.lammps.org/err0027 (src/domain.cpp:1052)
Step          Temp          PotEng         KinEng         TotEng         Press          Volume        Density
0   0              1510.5955      0              1510.5955      106370.8       3934.8919      1.7215818
Loop time of 0.0715008 on 1 procs for 98 steps with 386 atoms

Minimization stats:
  Stopping criterion = linesearch alpha is zero
  Energy initial, next-to-last, final =
  Force two-norm initial, final = 902.08816 16.380385
  Force max component initial, final = 98.362195 2.7489089
  Final line search alpha, max atom move = 3.3868316e-11 9.3100915e-11
  Iterations, force evaluations = 98 248

# Generating the full routine as described in the paper for UFF
fix nvt_relax   all nvt temp 300 300 100.0
run 100000      # 100 picoseconds
Generated 6 of 6 mixed pair_coeff terms from arithmetic mixing rule
For more information see https://docs.lammps.org/err0027 (src/domain.cpp:1052)
Step          Temp          PotEng         KinEng         TotEng         Press          Volume        Density
98   0              181.82028      0              181.82028      15390.823      3934.8919      1.7215818
Averages over the last 51 of 102 rows, steps 51000 to 100098:
Temp PotEng KinEng TotEng Press Volume Density
299.504 525.847 343.715 869.562 22065.5 3934.89 1.72158
Loop time of 27.0763 on 1 procs for 100000 steps with 386 atoms

unfix           nvt_relax

fix npt_relax   all npt temp 300 300 100.0 iso 0 0 500.0
run 100000      # 100 picoseconds
Generated 6 of 6 mixed pair_coeff terms from arithmetic mixing rule
For more information see https://docs.lammps.org/err0027 (src/domain.cpp:1052)
Step          Temp          PotEng         KinEng         TotEng         Press          Volume        Density
100098   294.43154      531.26935      337.89313      869.16248      16635.413      3934.8919      1.7215818
Averages over the last 51 of 102 rows, steps 151000 to 200098:
Temp PotEng KinEng TotEng Press Volume Density
299.727 508.403 343.971 852.374 -744.592 4107.41 1.64931
Loop time of 27.4464 on 1 procs for 100000 steps with 386 atoms

unfix           npt_relax

# run 100000      # 100 picoseconds
# unfix           nvt_heat
#
# run 100000      # 100 picoseconds
# unfix           npt_heat
#
# run 700000      # 700 picoseconds
# unfix           cooling_npt
#
# run 100000      # 100 picoseconds
# unfix           npt_final

# density computation
variable rho equal density
fix integrate  all npt temp 300 300 100.0 iso 0 0 500.0
fix rho50k all ave/time 10 5000 50000 v_rho mode scalar ave one
run 50000
Generated 6 of 6 mixed pair_coeff terms from arithmetic mixing rule
For more information see https://docs.lammps.org/err0027 (src/domain.cpp:1052)
Step          Temp          PotEng         KinEng         TotEng         Press          Volume        Density
200098   302.06077      500.13237      346.64852      846.78089      4564.2768      4058.5979      1.669108
Averages over the last 26 of 52 rows, steps 226000 to 250098:
Temp PotEng KinEng TotEng Press Volume Density
298.193 511.149 342.21 853.359 826.574 4106.82 1.64955
Loop time of 14.551 on 1 procs for 50000 steps with 386 atoms

unfix integrate
unfix rho50k

# Compute initial state
fix 3 all box/relax  aniso 0.0
minimize 0 1e-10 100000 100000
Generated 6 of 6 mixed pair_coeff terms from arithmetic mixing rule
 (src/min.cpp:222)
For more information see https://docs.lammps.org/err0027 (src/domain.cpp:1052)
Step          Temp          PotEng         KinEng         TotEng         Press          Volume        Density
250098   304.57334      494.28734      349.53198      843.81932      1143.1229      4121.5579      1.6436111
Loop time of 0.112916 on 1 procs for 319 steps with 386 atoms

Minimization stats:
  Stopping criterion = linesearch alpha is zero
  Energy initial, next-to-last, final =
  Force two-norm initial, final = 723.55409 132.14742
  Force max component initial, final = 232.47437 15.190254
  Final line search alpha, max atom move = 4.0420805e-13 6.1400228e-12
  Iterations, force evaluations = 319 352

variable tmp equal pxx
variable pxx0 equal 3229.29402382565
variable tmp equal pyy
variable pyy0 equal 3900.78526414127
variable tmp equal pzz
variable pzz0 equal 3775.95401725713
variable tmp equal pyz
variable pyz0 equal -1716.8133033004
variable tmp equal pxz
variable pxz0 equal 1213.81634750463
variable tmp equal pxy
variable pxy0 equal 1387.65453726906

variable tmp equal lx
variable lx0 equal 16.9653605955127
variable tmp equal ly
variable ly0 equal 13.779386336002
variable tmp equal lz
variable lz0 equal 17.6163333762347

# These formulas define the derivatives w.r.t. strain components
# Constants uses $, variables use v_
variable d1 equal -(v_pxx1-3229.29402382565)/(v_delta/v_len0)*0.0001
variable d2 equal -(v_pyy1-3900.78526414127)/(v_delta/v_len0)*0.0001
variable d3 equal -(v_pzz1-3775.95401725713)/(v_delta/v_len0)*0.0001
variable d4 equal -(v_pyz1--1716.8133033004)/(v_delta/v_len0)*0.0001
variable d5 equal -(v_pxz1-1213.81634750463)/(v_delta/v_len0)*0.0001
variable d6 equal -(v_pxy1-1387.65453726906)/(v_delta/v_len0)*0.0001

# Write restart
unfix 3
write_restart restart_333U-50C-48-vasp.equil
System init for write_restart ...
Generated 6 of 6 mixed pair_coeff terms from arithmetic mixing rule

# uxx Perturbation

variable dir equal 1
include ./input/displace_333U-50C-48-vasp.mod
variable len0 equal 16.9653605955127

# Reset box and simulation parameters

clear
box tilt large

The 'box' command has been removed and will be ignored

read_restart restart_333U-50C-48-vasp.equil
Reading restart file ...
  restart file = 10 Sep 2025, LAMMPS = 10 Sep 2025
  restoring atom style full from restart
  triclinic box = (-0.1215658 -0.095187668 -0.15010269) to (16.843795 13.684199 17.466231) with tilt (-7.4493154 -0.31246888 -0.018300871)
  restoring pair style lj/cut from restart
  restoring bond style harmonic from restart
  restoring angle style hybrid from restart
  restoring dihedral style harmonic from restart
  386 atoms
  411 bonds
  781 angles
  987 dihedrals
Finding 1-2 1-3 1-4 neighbors ...
     4 = max # of 1-2 neighbors
     8 = max # of 1-3 neighbors
    12 = max # of special neighbors
  read_restart CPU = 0.002 seconds
include ./input/angles_333U-50C-48-vasp.mod
angle_style hybrid fourier cosine/periodic
angle_coeff 1 fourier 58.020602        0.343737        0.374972        0.281246
angle_coeff 2 fourier 83.380072        0.343737        0.374972        0.281246
angle_coeff 3 fourier 157.882480        0.343737        0.374972        0.281246
angle_coeff 4 fourier 221.735285        0.343737        0.374972        0.281246
angle_coeff 5 fourier 114.246973        0.343737        0.374972        0.281246
angle_coeff 6 fourier 32.417871        0.343737        0.374972        0.281246
angle_coeff 7 fourier 90.420412        0.343737        0.374972        0.281246
angle_coeff 8 fourier 75.498766        0.343737        0.374972        0.281246
angle_coeff 9 cosine/periodic 88.853997              -1               3

# Negative deformation

variable delta equal -0.02*16.9653605955127
variable deltaxy equal -0.02*xy
variable deltaxz equal -0.02*xz
variable deltayz equal -0.02*yz
change_box all x delta 0 -0.339307211910254 xy delta 0.148986307629396 xz delta 0.00624937757275776 remap units box
Changing box ...
  triclinic box = (-0.1215658 -0.095187668 -0.15010269) to (16.504488 13.684199 17.466231) with tilt (-7.4493154 -0.31246888 -0.018300871)
  triclinic box = (-0.1215658 -0.095187668 -0.15010269) to (16.504488 13.684199 17.466231) with tilt (-7.3003291 -0.31246888 -0.018300871)
  triclinic box = (-0.1215658 -0.095187668 -0.15010269) to (16.504488 13.684199 17.466231) with tilt (-7.3003291 -0.3062195 -0.018300871)

# Relax atoms positions

minimize 0 1e-10 100000 100000
Generated 6 of 6 mixed pair_coeff terms from arithmetic mixing rule
For more information see https://docs.lammps.org/err0027 (src/domain.cpp:1052)
Step          Temp          E_pair         E_mol          TotEng         Press
250417   304.57334     -401.19716      701.3305       649.66532      30224.672
Loop time of 0.0491035 on 1 procs for 56 steps with 386 atoms

Minimization stats:
  Stopping criterion = linesearch alpha is zero
  Energy initial, next-to-last, final =
  Force two-norm initial, final = 214.93944 12.537576
  Force max component initial, final = 23.963371 1.6851371
  Final line search alpha, max atom move = 5.474026e-11 9.2244846e-11
  Iterations, force evaluations = 56 165

# Obtain new stress tensor

variable tmp equal pxx
variable pxx1 equal 7921.04892422901
variable tmp equal pyy
variable pyy1 equal -790.455404466693
variable tmp equal pzz
variable pzz1 equal 9081.08715144618
variable tmp equal pxy
variable pxy1 equal -873.10857768132
variable tmp equal pxz
variable pxz1 equal 1506.46051061857
variable tmp equal pyz
variable pyz1 equal -317.651096048356

# Compute elastic constant from pressure tensor

variable C1neg equal 23.4587745020168
variable C2neg equal -23.4562033430398
variable C3neg equal 26.5256656709452
variable C4neg equal 6.99581103626022
variable C5neg equal 1.4632208155697
variable C6neg equal -11.3038155747519

# Reset box and simulation parameters

clear
box tilt large

The 'box' command has been removed and will be ignored

read_restart restart_333U-50C-48-vasp.equil
Reading restart file ...
  restart file = 10 Sep 2025, LAMMPS = 10 Sep 2025
  restoring atom style full from restart
  triclinic box = (-0.1215658 -0.095187668 -0.15010269) to (16.843795 13.684199 17.466231) with tilt (-7.4493154 -0.31246888 -0.018300871)
  restoring pair style lj/cut from restart
  restoring bond style harmonic from restart
  restoring angle style hybrid from restart
  restoring dihedral style harmonic from restart
  386 atoms
  411 bonds
  781 angles
  987 dihedrals
Finding 1-2 1-3 1-4 neighbors ...
     4 = max # of 1-2 neighbors
     8 = max # of 1-3 neighbors
    12 = max # of special neighbors
  read_restart CPU = 0.002 seconds
include ./input/angles_333U-50C-48-vasp.mod
angle_style hybrid fourier cosine/periodic
angle_coeff 1 fourier 58.020602        0.343737        0.374972        0.281246
angle_coeff 2 fourier 83.380072        0.343737        0.374972        0.281246
angle_coeff 3 fourier 157.882480        0.343737        0.374972        0.281246
angle_coeff 4 fourier 221.735285        0.343737        0.374972        0.281246
angle_coeff 5 fourier 114.246973        0.343737        0.374972        0.281246
angle_coeff 6 fourier 32.417871        0.343737        0.374972        0.281246
angle_coeff 7 fourier 90.420412        0.343737        0.374972        0.281246
angle_coeff 8 fourier 75.498766        0.343737        0.374972        0.281246
angle_coeff 9 cosine/periodic 88.853997              -1               3

# Positive deformation

variable delta equal 0.02*16.9653605955127
variable deltaxy equal 0.02*xy
variable deltaxz equal 0.02*xz
variable deltayz equal 0.02*yz
change_box all x delta 0 0.339307211910254 xy delta -0.148986307629396 xz delta -0.00624937757275776 remap units box
Changing box ...
  triclinic box = (-0.1215658 -0.095187668 -0.15010269) to (17.183102 13.684199 17.466231) with tilt (-7.4493154 -0.31246888 -0.018300871)
  triclinic box = (-0.1215658 -0.095187668 -0.15010269) to (17.183102 13.684199 17.466231) with tilt (-7.5983017 -0.31246888 -0.018300871)
  triclinic box = (-0.1215658 -0.095187668 -0.15010269) to (17.183102 13.684199 17.466231) with tilt (-7.5983017 -0.31871826 -0.018300871)

# Relax atoms positions

minimize 0 1e-10 100000 100000
Generated 6 of 6 mixed pair_coeff terms from arithmetic mixing rule
For more information see https://docs.lammps.org/err0027 (src/domain.cpp:1052)
Step          Temp          E_pair         E_mol          TotEng         Press
250417   304.57334     -446.23379      746.62819      649.92639     -22036.057
Loop time of 0.038989 on 1 procs for 45 steps with 386 atoms

Minimization stats:
  Stopping criterion = linesearch alpha is zero
  Energy initial, next-to-last, final =
  Force two-norm initial, final = 207.67053 17.173936
  Force max component initial, final = 22.685503 2.1555671
  Final line search alpha, max atom move = 2.6560219e-11 5.7252332e-11
  Iterations, force evaluations = 45 145

# Obtain new stress tensor

variable tmp equal pe
variable e1 equal 178.629847587764
variable tmp equal press
variable p1 equal -9019.01602241408
variable tmp equal pxx
variable pxx1 equal -15184.0903199318
variable tmp equal pyy
variable pyy1 equal -9311.4138562468
variable tmp equal pzz
variable pzz1 equal -2561.54389106361
variable tmp equal pxy
variable pxy1 equal -566.605838551985
variable tmp equal pxz
variable pxz1 equal 2889.53214405611
variable tmp equal pyz
variable pyz1 equal 634.368855797911

# Compute elastic constant from pressure tensor

variable C1pos equal 92.0669217187873
variable C2pos equal 66.0609956019404
variable C3pos equal 31.6874895416037
variable C4pos equal -11.7559107954916
variable C5pos equal -8.3785789827574
variable C6pos equal 9.77130187910523

# Combine positive and negative

variable C11 equal 0.5*(23.4587745020168+92.0669217187873)
variable C21 equal 0.5*(-23.4562033430398+66.0609956019404)
variable C31 equal 0.5*(26.5256656709452+31.6874895416037)
variable C41 equal 0.5*(6.99581103626022+-11.7559107954916)
variable C51 equal 0.5*(1.4632208155697+-8.3785789827574)
variable C61 equal 0.5*(-11.3038155747519+9.77130187910523)

# Delete dir to make sure it is not reused

variable dir delete

# uyy Perturbation

variable dir equal 2
include ./input/displace_333U-50C-48-vasp.mod
variable len0 equal 13.779386336002

# Reset box and simulation parameters

clear
box tilt large

The 'box' command has been removed and will be ignored

read_restart restart_333U-50C-48-vasp.equil
Reading restart file ...
  restart file = 10 Sep 2025, LAMMPS = 10 Sep 2025
  restoring atom style full from restart
  triclinic box = (-0.1215658 -0.095187668 -0.15010269) to (16.843795 13.684199 17.466231) with tilt (-7.4493154 -0.31246888 -0.018300871)
  restoring pair style lj/cut from restart
  restoring bond style harmonic from restart
  restoring angle style hybrid from restart
  restoring dihedral style harmonic from restart
  386 atoms
  411 bonds
  781 angles
  987 dihedrals
Finding 1-2 1-3 1-4 neighbors ...
     4 = max # of 1-2 neighbors
     8 = max # of 1-3 neighbors
    12 = max # of special neighbors
  read_restart CPU = 0.001 seconds
include ./input/angles_333U-50C-48-vasp.mod
angle_style hybrid fourier cosine/periodic
angle_coeff 1 fourier 58.020602        0.343737        0.374972        0.281246
angle_coeff 2 fourier 83.380072        0.343737        0.374972        0.281246
angle_coeff 3 fourier 157.882480        0.343737        0.374972        0.281246
angle_coeff 4 fourier 221.735285        0.343737        0.374972        0.281246
angle_coeff 5 fourier 114.246973        0.343737        0.374972        0.281246
angle_coeff 6 fourier 32.417871        0.343737        0.374972        0.281246
angle_coeff 7 fourier 90.420412        0.343737        0.374972        0.281246
angle_coeff 8 fourier 75.498766        0.343737        0.374972        0.281246
angle_coeff 9 cosine/periodic 88.853997              -1               3

# Negative deformation

variable delta equal -0.02*13.779386336002
variable deltaxy equal -0.02*xy
variable deltaxz equal -0.02*xz
variable deltayz equal -0.02*yz
change_box all y delta 0 -0.27558772672004 yz delta 0.000366017415793057 remap units box
Changing box ...
  triclinic box = (-0.1215658 -0.095187668 -0.15010269) to (16.843795 13.408611 17.466231) with tilt (-7.4493154 -0.31246888 -0.018300871)
  triclinic box = (-0.1215658 -0.095187668 -0.15010269) to (16.843795 13.408611 17.466231) with tilt (-7.4493154 -0.31246888 -0.017934853)

# Relax atoms positions

minimize 0 1e-10 100000 100000
Generated 6 of 6 mixed pair_coeff terms from arithmetic mixing rule
For more information see https://docs.lammps.org/err0027 (src/domain.cpp:1052)
Step          Temp          E_pair         E_mol          TotEng         Press
250417   304.57334     -398.76961      700.72197      651.48433      30593.691
Loop time of 0.0350928 on 1 procs for 34 steps with 386 atoms

Minimization stats:
  Stopping criterion = linesearch alpha is zero
  Energy initial, next-to-last, final =
  Force two-norm initial, final = 230.16471 23.600221
  Force max component initial, final = 26.249638 3.3312934
  Final line search alpha, max atom move = 1.3444463e-11 4.4787452e-11
  Iterations, force evaluations = 34 125

# Obtain new stress tensor

variable tmp equal pxx
variable pxx1 equal 1119.11384217309
variable tmp equal pyy
variable pyy1 equal 9932.78928440706
variable tmp equal pzz
variable pzz1 equal 8369.49819776773
variable tmp equal pxy
variable pxy1 equal -1234.76367240546
variable tmp equal pxz
variable pxz1 equal 1795.31738492377
variable tmp equal pyz
variable pyz1 equal -1134.69985616763

# Compute elastic constant from pressure tensor

variable C1neg equal -10.5509009082628
variable C2neg equal 30.1600201013289
variable C3neg equal 22.967720902553
variable C4neg equal 2.91056723566385
variable C5neg equal 2.9075051870957
variable C6neg equal -13.1120910483726

# Reset box and simulation parameters

clear
box tilt large

The 'box' command has been removed and will be ignored

read_restart restart_333U-50C-48-vasp.equil
Reading restart file ...
  restart file = 10 Sep 2025, LAMMPS = 10 Sep 2025
  restoring atom style full from restart
  triclinic box = (-0.1215658 -0.095187668 -0.15010269) to (16.843795 13.684199 17.466231) with tilt (-7.4493154 -0.31246888 -0.018300871)
  restoring pair style lj/cut from restart
  restoring bond style harmonic from restart
  restoring angle style hybrid from restart
  restoring dihedral style harmonic from restart
  386 atoms
  411 bonds
  781 angles
  987 dihedrals
Finding 1-2 1-3 1-4 neighbors ...
     4 = max # of 1-2 neighbors
     8 = max # of 1-3 neighbors
    12 = max # of special neighbors
  read_restart CPU = 0.001 seconds
include ./input/angles_333U-50C-48-vasp.mod
angle_style hybrid fourier cosine/periodic
angle_coeff 1 fourier 58.020602        0.343737        0.374972        0.281246
angle_coeff 2 fourier 83.380072        0.343737        0.374972        0.281246
angle_coeff 3 fourier 157.882480        0.343737        0.374972        0.281246
angle_coeff 4 fourier 221.735285        0.343737        0.374972        0.281246
angle_coeff 5 fourier 114.246973        0.343737        0.374972        0.281246
angle_coeff 6 fourier 32.417871        0.343737        0.374972        0.281246
angle_coeff 7 fourier 90.420412        0.343737        0.374972        0.281246
angle_coeff 8 fourier 75.498766        0.343737        0.374972        0.281246
angle_coeff 9 cosine/periodic 88.853997              -1               3

# Positive deformation

variable delta equal 0.02*13.779386336002
variable deltaxy equal 0.02*xy
variable deltaxz equal 0.02*xz
variable deltayz equal 0.02*yz
change_box all y delta 0 0.27558772672004 yz delta -0.000366017415793057 remap units box
Changing box ...
  triclinic box = (-0.1215658 -0.095187668 -0.15010269) to (16.843795 13.959786 17.466231) with tilt (-7.4493154 -0.31246888 -0.018300871)
  triclinic box = (-0.1215658 -0.095187668 -0.15010269) to (16.843795 13.959786 17.466231) with tilt (-7.4493154 -0.31246888 -0.018666888)

# Relax atoms positions

minimize 0 1e-10 100000 100000
Generated 6 of 6 mixed pair_coeff terms from arithmetic mixing rule
For more information see https://docs.lammps.org/err0027 (src/domain.cpp:1052)
Step          Temp          E_pair         E_mol          TotEng         Press
250417   304.57334     -447.45481      749.38878      651.46596     -22340.657
Loop time of 0.0459557 on 1 procs for 54 steps with 386 atoms

Minimization stats:
  Stopping criterion = linesearch alpha is zero
  Energy initial, next-to-last, final =
  Force two-norm initial, final = 217.49701 11.357414
  Force max component initial, final = 23.694429 1.3479031
  Final line search alpha, max atom move = 8.3647633e-11 1.127489e-10
  Iterations, force evaluations = 54 161

# Obtain new stress tensor

variable tmp equal pe
variable e1 equal 180.398990607375
variable tmp equal press
variable p1 equal -10151.7690788835
variable tmp equal pxx
variable pxx1 equal -9553.07309640714
variable tmp equal pyy
variable pyy1 equal -18541.7652632797
variable tmp equal pzz
variable pzz1 equal -2360.46887696364
variable tmp equal pxy
variable pxy1 equal -13.081834855264
variable tmp equal pxz
variable pxz1 equal 2506.32816946737
variable tmp equal pyz
variable pyz1 equal 494.154686421418

# Compute elastic constant from pressure tensor

variable C1pos equal 63.911835601164
variable C2pos equal 112.212752637105
variable C3pos equal 30.6821144711039
variable C4pos equal -11.0548399486091
variable C5pos equal -6.4625591098137
variable C6pos equal 7.00368186062162

# Combine positive and negative

variable C12 equal 0.5*(-10.5509009082628+63.911835601164)
variable C22 equal 0.5*(30.1600201013289+112.212752637105)
variable C32 equal 0.5*(22.967720902553+30.6821144711039)
variable C42 equal 0.5*(2.91056723566385+-11.0548399486091)
variable C52 equal 0.5*(2.9075051870957+-6.4625591098137)
variable C62 equal 0.5*(-13.1120910483726+7.00368186062162)

# Delete dir to make sure it is not reused

variable dir delete

# uzz Perturbation

variable dir equal 3
include ./input/displace_333U-50C-48-vasp.mod
variable len0 equal 17.6163333762347

# Reset box and simulation parameters

clear
box tilt large

The 'box' command has been removed and will be ignored

read_restart restart_333U-50C-48-vasp.equil
Reading restart file ...
  restart file = 10 Sep 2025, LAMMPS = 10 Sep 2025
  restoring atom style full from restart
  triclinic box = (-0.1215658 -0.095187668 -0.15010269) to (16.843795 13.684199 17.466231) with tilt (-7.4493154 -0.31246888 -0.018300871)
  restoring pair style lj/cut from restart
  restoring bond style harmonic from restart
  restoring angle style hybrid from restart
  restoring dihedral style harmonic from restart
  386 atoms
  411 bonds
  781 angles
  987 dihedrals
Finding 1-2 1-3 1-4 neighbors ...
     4 = max # of 1-2 neighbors
     8 = max # of 1-3 neighbors
    12 = max # of special neighbors
  read_restart CPU = 0.001 seconds
include ./input/angles_333U-50C-48-vasp.mod
angle_style hybrid fourier cosine/periodic
angle_coeff 1 fourier 58.020602        0.343737        0.374972        0.281246
angle_coeff 2 fourier 83.380072        0.343737        0.374972        0.281246
angle_coeff 3 fourier 157.882480        0.343737        0.374972        0.281246
angle_coeff 4 fourier 221.735285        0.343737        0.374972        0.281246
angle_coeff 5 fourier 114.246973        0.343737        0.374972        0.281246
angle_coeff 6 fourier 32.417871        0.343737        0.374972        0.281246
angle_coeff 7 fourier 90.420412        0.343737        0.374972        0.281246
angle_coeff 8 fourier 75.498766        0.343737        0.374972        0.281246
angle_coeff 9 cosine/periodic 88.853997              -1               3

# Negative deformation

variable delta equal -0.02*17.6163333762347
variable deltaxy equal -0.02*xy
variable deltaxz equal -0.02*xz
variable deltayz equal -0.02*yz
change_box all z delta 0 -0.352326667524694 remap units box
Changing box ...
  triclinic box = (-0.1215658 -0.095187668 -0.15010269) to (16.843795 13.684199 17.113904) with tilt (-7.4493154 -0.31246888 -0.018300871)

# Relax atoms positions

minimize 0 1e-10 100000 100000
Generated 6 of 6 mixed pair_coeff terms from arithmetic mixing rule
For more information see https://docs.lammps.org/err0027 (src/domain.cpp:1052)
Step          Temp          E_pair         E_mol          TotEng         Press
250417   304.57334     -397.6166       698.40627      650.32165      30549.435
Loop time of 0.0348435 on 1 procs for 34 steps with 386 atoms

Minimization stats:
  Stopping criterion = linesearch alpha is zero
  Energy initial, next-to-last, final =
  Force two-norm initial, final = 216.41148 20.31667
  Force max component initial, final = 21.728061 3.2393983
  Final line search alpha, max atom move = 1.9952404e-11 6.4633785e-11
  Iterations, force evaluations = 34 125

# Obtain new stress tensor

variable tmp equal pxx
variable pxx1 equal 1917.8963138108
variable tmp equal pyy
variable pyy1 equal 1593.821722364
variable tmp equal pzz
variable pzz1 equal 16695.1191107217
variable tmp equal pxy
variable pxy1 equal -980.483162298356
variable tmp equal pxz
variable pxz1 equal 2206.58138738213
variable tmp equal pyz
variable pyz1 equal -754.577437483016

# Compute elastic constant from pressure tensor

variable C1neg equal -6.55698855007425
variable C2neg equal -11.5348177088864
variable C3neg equal 64.5958254673228
variable C4neg equal 4.81117932908692
variable C5neg equal 4.9638251993875
variable C6neg equal -11.8406884978371

# Reset box and simulation parameters

clear
box tilt large

The 'box' command has been removed and will be ignored

read_restart restart_333U-50C-48-vasp.equil
Reading restart file ...
  restart file = 10 Sep 2025, LAMMPS = 10 Sep 2025
  restoring atom style full from restart
  triclinic box = (-0.1215658 -0.095187668 -0.15010269) to (16.843795 13.684199 17.466231) with tilt (-7.4493154 -0.31246888 -0.018300871)
  restoring pair style lj/cut from restart
  restoring bond style harmonic from restart
  restoring angle style hybrid from restart
  restoring dihedral style harmonic from restart
  386 atoms
  411 bonds
  781 angles
  987 dihedrals
Finding 1-2 1-3 1-4 neighbors ...
     4 = max # of 1-2 neighbors
     8 = max # of 1-3 neighbors
    12 = max # of special neighbors
  read_restart CPU = 0.001 seconds
include ./input/angles_333U-50C-48-vasp.mod
angle_style hybrid fourier cosine/periodic
angle_coeff 1 fourier 58.020602        0.343737        0.374972        0.281246
angle_coeff 2 fourier 83.380072        0.343737        0.374972        0.281246
angle_coeff 3 fourier 157.882480        0.343737        0.374972        0.281246
angle_coeff 4 fourier 221.735285        0.343737        0.374972        0.281246
angle_coeff 5 fourier 114.246973        0.343737        0.374972        0.281246
angle_coeff 6 fourier 32.417871        0.343737        0.374972        0.281246
angle_coeff 7 fourier 90.420412        0.343737        0.374972        0.281246
angle_coeff 8 fourier 75.498766        0.343737        0.374972        0.281246
angle_coeff 9 cosine/periodic 88.853997              -1               3

# Positive deformation

variable delta equal 0.02*17.6163333762347
variable deltaxy equal 0.02*xy
variable deltaxz equal 0.02*xz
variable deltayz equal 0.02*yz
change_box all z delta 0 0.352326667524694 remap units box
Changing box ...
  triclinic box = (-0.1215658 -0.095187668 -0.15010269) to (16.843795 13.684199 17.818557) with tilt (-7.4493154 -0.31246888 -0.018300871)

# Relax atoms positions

minimize 0 1e-10 100000 100000
Generated 6 of 6 mixed pair_coeff terms from arithmetic mixing rule
For more information see https://docs.lammps.org/err0027 (src/domain.cpp:1052)
Step          Temp          E_pair         E_mol          TotEng         Press
250417   304.57334     -448.04539      749.38336      650.86996     -22264.742
Loop time of 0.0502355 on 1 procs for 49 steps with 386 atoms

Minimization stats:
  Stopping criterion = linesearch alpha is zero
  Energy initial, next-to-last, final =
  Force two-norm initial, final = 218.83184 14.166699
  Force max component initial, final = 24.176855 2.0025664
  Final line search alpha, max atom move = 3.738039e-11 7.4856714e-11
  Iterations, force evaluations = 49 177

# Obtain new stress tensor

variable tmp equal pe
variable e1 equal 171.040825093884
variable tmp equal press
variable p1 equal -9876.72664918605
variable tmp equal pxx
variable pxx1 equal -10028.2314793426
variable tmp equal pyy
variable pyy1 equal -9937.50053694493
variable tmp equal pzz
variable pzz1 equal -9664.44793127066
variable tmp equal pxy
variable pxy1 equal -139.985556274771
variable tmp equal pxz
variable pxz1 equal 2290.87077029937
variable tmp equal pyz
variable pyz1 equal 396.096605751167

# Compute elastic constant from pressure tensor

variable C1pos equal 66.2876275158413
variable C2pos equal 69.191429005431
variable C3pos equal 67.202009742639
variable C4pos equal -10.5645495452578
variable C5pos equal -5.3852721139737
variable C6pos equal 7.63820046771916

# Combine positive and negative

variable C13 equal 0.5*(-6.55698855007425+66.2876275158413)
variable C23 equal 0.5*(-11.5348177088864+69.191429005431)
variable C33 equal 0.5*(64.5958254673228+67.202009742639)
variable C43 equal 0.5*(4.81117932908692+-10.5645495452578)
variable C53 equal 0.5*(4.9638251993875+-5.3852721139737)
variable C63 equal 0.5*(-11.8406884978371+7.63820046771916)

# Delete dir to make sure it is not reused

variable dir delete

# uyz Perturbation

variable dir equal 4
include ./input/displace_333U-50C-48-vasp.mod
variable len0 equal 17.6163333762347

# Reset box and simulation parameters

clear
box tilt large

The 'box' command has been removed and will be ignored

read_restart restart_333U-50C-48-vasp.equil
Reading restart file ...
  restart file = 10 Sep 2025, LAMMPS = 10 Sep 2025
  restoring atom style full from restart
  triclinic box = (-0.1215658 -0.095187668 -0.15010269) to (16.843795 13.684199 17.466231) with tilt (-7.4493154 -0.31246888 -0.018300871)
  restoring pair style lj/cut from restart
  restoring bond style harmonic from restart
  restoring angle style hybrid from restart
  restoring dihedral style harmonic from restart
  386 atoms
  411 bonds
  781 angles
  987 dihedrals
Finding 1-2 1-3 1-4 neighbors ...
     4 = max # of 1-2 neighbors
     8 = max # of 1-3 neighbors
    12 = max # of special neighbors
  read_restart CPU = 0.001 seconds
include ./input/angles_333U-50C-48-vasp.mod
angle_style hybrid fourier cosine/periodic
angle_coeff 1 fourier 58.020602        0.343737        0.374972        0.281246
angle_coeff 2 fourier 83.380072        0.343737        0.374972        0.281246
angle_coeff 3 fourier 157.882480        0.343737        0.374972        0.281246
angle_coeff 4 fourier 221.735285        0.343737        0.374972        0.281246
angle_coeff 5 fourier 114.246973        0.343737        0.374972        0.281246
angle_coeff 6 fourier 32.417871        0.343737        0.374972        0.281246
angle_coeff 7 fourier 90.420412        0.343737        0.374972        0.281246
angle_coeff 8 fourier 75.498766        0.343737        0.374972        0.281246
angle_coeff 9 cosine/periodic 88.853997              -1               3

# Negative deformation

variable delta equal -0.02*17.6163333762347
variable deltaxy equal -0.02*xy
variable deltaxz equal -0.02*xz
variable deltayz equal -0.02*yz
change_box all yz delta -0.352326667524694 remap units box
Changing box ...
  triclinic box = (-0.1215658 -0.095187668 -0.15010269) to (16.843795 13.684199 17.466231) with tilt (-7.4493154 -0.31246888 -0.37062754)

# Relax atoms positions

minimize 0 1e-10 100000 100000
Generated 6 of 6 mixed pair_coeff terms from arithmetic mixing rule
For more information see https://docs.lammps.org/err0027 (src/domain.cpp:1052)
Step          Temp          E_pair         E_mol          TotEng         Press
250417   304.57334     -424.76902      705.51015      630.27311      3673.3204
Loop time of 0.0329684 on 1 procs for 31 steps with 386 atoms

Minimization stats:
  Stopping criterion = linesearch alpha is zero
  Energy initial, next-to-last, final =
  Force two-norm initial, final = 178.40437 22.460443
  Force max component initial, final = 16.76449 4.2184576
  Final line search alpha, max atom move = 1.5334129e-11 6.4686374e-11
  Iterations, force evaluations = 31 119

# Obtain new stress tensor

variable tmp equal pxx
variable pxx1 equal -4653.72734432443
variable tmp equal pyy
variable pyy1 equal -5293.37773210554
variable tmp equal pzz
variable pzz1 equal 2640.99687955643
variable tmp equal pxy
variable pxy1 equal -780.707006796852
variable tmp equal pxz
variable pxz1 equal 2340.73443205288
variable tmp equal pyz
variable pyz1 equal 3952.22223127101

# Compute elastic constant from pressure tensor

variable C1neg equal -39.4151068407504
variable C2neg equal -45.970814981234
variable C3neg equal -5.6747856885035
variable C4neg equal 28.3451776728571
variable C5neg equal 5.63459042274125
variable C6neg equal -10.8418077203296

# Reset box and simulation parameters

clear
box tilt large

The 'box' command has been removed and will be ignored

read_restart restart_333U-50C-48-vasp.equil
Reading restart file ...
  restart file = 10 Sep 2025, LAMMPS = 10 Sep 2025
  restoring atom style full from restart
  triclinic box = (-0.1215658 -0.095187668 -0.15010269) to (16.843795 13.684199 17.466231) with tilt (-7.4493154 -0.31246888 -0.018300871)
  restoring pair style lj/cut from restart
  restoring bond style harmonic from restart
  restoring angle style hybrid from restart
  restoring dihedral style harmonic from restart
  386 atoms
  411 bonds
  781 angles
  987 dihedrals
Finding 1-2 1-3 1-4 neighbors ...
     4 = max # of 1-2 neighbors
     8 = max # of 1-3 neighbors
    12 = max # of special neighbors
  read_restart CPU = 0.001 seconds
include ./input/angles_333U-50C-48-vasp.mod
angle_style hybrid fourier cosine/periodic
angle_coeff 1 fourier 58.020602        0.343737        0.374972        0.281246
angle_coeff 2 fourier 83.380072        0.343737        0.374972        0.281246
angle_coeff 3 fourier 157.882480        0.343737        0.374972        0.281246
angle_coeff 4 fourier 221.735285        0.343737        0.374972        0.281246
angle_coeff 5 fourier 114.246973        0.343737        0.374972        0.281246
angle_coeff 6 fourier 32.417871        0.343737        0.374972        0.281246
angle_coeff 7 fourier 90.420412        0.343737        0.374972        0.281246
angle_coeff 8 fourier 75.498766        0.343737        0.374972        0.281246
angle_coeff 9 cosine/periodic 88.853997              -1               3

# Positive deformation

variable delta equal 0.02*17.6163333762347
variable deltaxy equal 0.02*xy
variable deltaxz equal 0.02*xz
variable deltayz equal 0.02*yz
change_box all yz delta 0.352326667524694 remap units box
Changing box ...
  triclinic box = (-0.1215658 -0.095187668 -0.15010269) to (16.843795 13.684199 17.466231) with tilt (-7.4493154 -0.31246888 0.3340258)

# Relax atoms positions

minimize 0 1e-10 100000 100000
Generated 6 of 6 mixed pair_coeff terms from arithmetic mixing rule
For more information see https://docs.lammps.org/err0027 (src/domain.cpp:1052)
Step          Temp          E_pair         E_mol          TotEng         Press
250417   304.57334     -425.75484      710.67253      634.44968      3256.1813
Loop time of 0.0469298 on 1 procs for 53 steps with 386 atoms

Minimization stats:
  Stopping criterion = linesearch alpha is zero
  Energy initial, next-to-last, final =
  Force two-norm initial, final = 179.81837 13.44184
  Force max component initial, final = 23.81206 1.6926725
  Final line search alpha, max atom move = 5.2211835e-11 8.8377537e-11
  Iterations, force evaluations = 53 159

# Obtain new stress tensor

variable tmp equal pe
variable e1 equal 164.445844464721
variable tmp equal press
variable p1 equal -2604.54044141185
variable tmp equal pxx
variable pxx1 equal -4382.61071791787
variable tmp equal pyy
variable pyy1 equal -5861.75511383521
variable tmp equal pzz
variable pzz1 equal 2430.74450751752
variable tmp equal pxy
variable pxy1 equal -494.836469704832
variable tmp equal pxz
variable pxz1 equal 2087.45332047706
variable tmp equal pyz
variable pyz1 equal -4217.66024952926

# Compute elastic constant from pressure tensor

variable C1pos equal 38.0595237087176
variable C2pos equal 48.8127018898824
variable C3pos equal 6.72604754869805
variable C4pos equal 12.5042347311443
variable C5pos equal -4.36818486486215
variable C6pos equal 9.41245503486946

# Combine positive and negative

variable C14 equal 0.5*(-39.4151068407504+38.0595237087176)
variable C24 equal 0.5*(-45.970814981234+48.8127018898824)
variable C34 equal 0.5*(-5.6747856885035+6.72604754869805)
variable C44 equal 0.5*(28.3451776728571+12.5042347311443)
variable C54 equal 0.5*(5.63459042274125+-4.36818486486215)
variable C64 equal 0.5*(-10.8418077203296+9.41245503486946)

# Delete dir to make sure it is not reused

variable dir delete

# uxz Perturbation

variable dir equal 5
include ./input/displace_333U-50C-48-vasp.mod
variable len0 equal 17.6163333762347

# Reset box and simulation parameters

clear
box tilt large

The 'box' command has been removed and will be ignored

read_restart restart_333U-50C-48-vasp.equil
Reading restart file ...
  restart file = 10 Sep 2025, LAMMPS = 10 Sep 2025
  restoring atom style full from restart
  triclinic box = (-0.1215658 -0.095187668 -0.15010269) to (16.843795 13.684199 17.466231) with tilt (-7.4493154 -0.31246888 -0.018300871)
  restoring pair style lj/cut from restart
  restoring bond style harmonic from restart
  restoring angle style hybrid from restart
  restoring dihedral style harmonic from restart
  386 atoms
  411 bonds
  781 angles
  987 dihedrals
Finding 1-2 1-3 1-4 neighbors ...
     4 = max # of 1-2 neighbors
     8 = max # of 1-3 neighbors
    12 = max # of special neighbors
  read_restart CPU = 0.001 seconds
include ./input/angles_333U-50C-48-vasp.mod
angle_style hybrid fourier cosine/periodic
angle_coeff 1 fourier 58.020602        0.343737        0.374972        0.281246
angle_coeff 2 fourier 83.380072        0.343737        0.374972        0.281246
angle_coeff 3 fourier 157.882480        0.343737        0.374972        0.281246
angle_coeff 4 fourier 221.735285        0.343737        0.374972        0.281246
angle_coeff 5 fourier 114.246973        0.343737        0.374972        0.281246
angle_coeff 6 fourier 32.417871        0.343737        0.374972        0.281246
angle_coeff 7 fourier 90.420412        0.343737        0.374972        0.281246
angle_coeff 8 fourier 75.498766        0.343737        0.374972        0.281246
angle_coeff 9 cosine/periodic 88.853997              -1               3

# Negative deformation

variable delta equal -0.02*17.6163333762347
variable deltaxy equal -0.02*xy
variable deltaxz equal -0.02*xz
variable deltayz equal -0.02*yz
change_box all xz delta -0.352326667524694 remap units box
Changing box ...
  triclinic box = (-0.1215658 -0.095187668 -0.15010269) to (16.843795 13.684199 17.466231) with tilt (-7.4493154 -0.66479555 -0.018300871)

# Relax atoms positions

minimize 0 1e-10 100000 100000
Generated 6 of 6 mixed pair_coeff terms from arithmetic mixing rule
For more information see https://docs.lammps.org/err0027 (src/domain.cpp:1052)
Step          Temp          E_pair         E_mol          TotEng         Press
250417   304.57334     -424.75954      710.23514      635.00759      3143.8417
Loop time of 0.0502712 on 1 procs for 60 steps with 386 atoms

Minimization stats:
  Stopping criterion = linesearch alpha is zero
  Energy initial, next-to-last, final =
  Force two-norm initial, final = 184.21822 9.6416863
  Force max component initial, final = 15.872771 1.3115556
  Final line search alpha, max atom move = 7.697001e-11 1.0095045e-10
  Iterations, force evaluations = 60 173

# Obtain new stress tensor

variable tmp equal pxx
variable pxx1 equal -5287.54418029218
variable tmp equal pyy
variable pyy1 equal -6686.38870305637
variable tmp equal pzz
variable pzz1 equal 2694.00139835097
variable tmp equal pxy
variable pxy1 equal -438.617968570366
variable tmp equal pxz
variable pxz1 equal 6239.36497220063
variable tmp equal pyz
variable pyz1 equal 397.890638598349

# Compute elastic constant from pressure tensor

variable C1neg equal -42.5841910205892
variable C2neg equal -52.9358698359882
variable C3neg equal -5.4097630945308
variable C4neg equal 10.5735197094937
variable C5neg equal 25.12774312348
variable C6neg equal -9.13136252919713

# Reset box and simulation parameters

clear
box tilt large

The 'box' command has been removed and will be ignored

read_restart restart_333U-50C-48-vasp.equil
Reading restart file ...
  restart file = 10 Sep 2025, LAMMPS = 10 Sep 2025
  restoring atom style full from restart
  triclinic box = (-0.1215658 -0.095187668 -0.15010269) to (16.843795 13.684199 17.466231) with tilt (-7.4493154 -0.31246888 -0.018300871)
  restoring pair style lj/cut from restart
  restoring bond style harmonic from restart
  restoring angle style hybrid from restart
  restoring dihedral style harmonic from restart
  386 atoms
  411 bonds
  781 angles
  987 dihedrals
Finding 1-2 1-3 1-4 neighbors ...
     4 = max # of 1-2 neighbors
     8 = max # of 1-3 neighbors
    12 = max # of special neighbors
  read_restart CPU = 0.001 seconds
include ./input/angles_333U-50C-48-vasp.mod
angle_style hybrid fourier cosine/periodic
angle_coeff 1 fourier 58.020602        0.343737        0.374972        0.281246
angle_coeff 2 fourier 83.380072        0.343737        0.374972        0.281246
angle_coeff 3 fourier 157.882480        0.343737        0.374972        0.281246
angle_coeff 4 fourier 221.735285        0.343737        0.374972        0.281246
angle_coeff 5 fourier 114.246973        0.343737        0.374972        0.281246
angle_coeff 6 fourier 32.417871        0.343737        0.374972        0.281246
angle_coeff 7 fourier 90.420412        0.343737        0.374972        0.281246
angle_coeff 8 fourier 75.498766        0.343737        0.374972        0.281246
angle_coeff 9 cosine/periodic 88.853997              -1               3

# Positive deformation

variable delta equal 0.02*17.6163333762347
variable deltaxy equal 0.02*xy
variable deltaxz equal 0.02*xz
variable deltayz equal 0.02*yz
change_box all xz delta 0.352326667524694 remap units box
Changing box ...
  triclinic box = (-0.1215658 -0.095187668 -0.15010269) to (16.843795 13.684199 17.466231) with tilt (-7.4493154 0.039857789 -0.018300871)

# Relax atoms positions

minimize 0 1e-10 100000 100000
Generated 6 of 6 mixed pair_coeff terms from arithmetic mixing rule
For more information see https://docs.lammps.org/err0027 (src/domain.cpp:1052)
Step          Temp          E_pair         E_mol          TotEng         Press
250417   304.57334     -426.07202      707.34344      630.80341      3768.7219
Loop time of 0.0344679 on 1 procs for 35 steps with 386 atoms

Minimization stats:
  Stopping criterion = linesearch alpha is zero
  Energy initial, next-to-last, final =
  Force two-norm initial, final = 185.04797 20.23703
  Force max component initial, final = 18.22536 2.1420935
  Final line search alpha, max atom move = 1.675412e-11 3.5888891e-11
  Iterations, force evaluations = 35 127

# Obtain new stress tensor

variable tmp equal pe
variable e1 equal 165.393274991416
variable tmp equal press
variable p1 equal -1531.40644688847
variable tmp equal pxx
variable pxx1 equal -3635.68563594759
variable tmp equal pyy
variable pyy1 equal -4048.77317965831
variable tmp equal pzz
variable pzz1 equal 3090.23947494047
variable tmp equal pxy
variable pxy1 equal -577.984878157272
variable tmp equal pxz
variable pxz1 equal -1902.40938054751
variable tmp equal pyz
variable pyz1 equal -524.094026385544

# Compute elastic constant from pressure tensor

variable C1pos equal 34.3248982988662
variable C2pos equal 39.7477922189979
variable C3pos equal 3.4285727115833
variable C4pos equal -5.96359638457428
variable C5pos equal 15.5811286402607
variable C6pos equal 9.82819707713166

# Combine positive and negative

variable C15 equal 0.5*(-42.5841910205892+34.3248982988662)
variable C25 equal 0.5*(-52.9358698359882+39.7477922189979)
variable C35 equal 0.5*(-5.4097630945308+3.4285727115833)
variable C45 equal 0.5*(10.5735197094937+-5.96359638457428)
variable C55 equal 0.5*(25.12774312348+15.5811286402607)
variable C65 equal 0.5*(-9.13136252919713+9.82819707713166)

# Delete dir to make sure it is not reused

variable dir delete

# uxy Perturbation

variable dir equal 6
include ./input/displace_333U-50C-48-vasp.mod
variable len0 equal 13.779386336002

# Reset box and simulation parameters

clear
box tilt large

The 'box' command has been removed and will be ignored

read_restart restart_333U-50C-48-vasp.equil
Reading restart file ...
  restart file = 10 Sep 2025, LAMMPS = 10 Sep 2025
  restoring atom style full from restart
  triclinic box = (-0.1215658 -0.095187668 -0.15010269) to (16.843795 13.684199 17.466231) with tilt (-7.4493154 -0.31246888 -0.018300871)
  restoring pair style lj/cut from restart
  restoring bond style harmonic from restart
  restoring angle style hybrid from restart
  restoring dihedral style harmonic from restart
  386 atoms
  411 bonds
  781 angles
  987 dihedrals
Finding 1-2 1-3 1-4 neighbors ...
     4 = max # of 1-2 neighbors
     8 = max # of 1-3 neighbors
    12 = max # of special neighbors
  read_restart CPU = 0.001 seconds
include ./input/angles_333U-50C-48-vasp.mod
angle_style hybrid fourier cosine/periodic
angle_coeff 1 fourier 58.020602        0.343737        0.374972        0.281246
angle_coeff 2 fourier 83.380072        0.343737        0.374972        0.281246
angle_coeff 3 fourier 157.882480        0.343737        0.374972        0.281246
angle_coeff 4 fourier 221.735285        0.343737        0.374972        0.281246
angle_coeff 5 fourier 114.246973        0.343737        0.374972        0.281246
angle_coeff 6 fourier 32.417871        0.343737        0.374972        0.281246
angle_coeff 7 fourier 90.420412        0.343737        0.374972        0.281246
angle_coeff 8 fourier 75.498766        0.343737        0.374972        0.281246
angle_coeff 9 cosine/periodic 88.853997              -1               3

# Negative deformation

variable delta equal -0.02*13.779386336002
variable deltaxy equal -0.02*xy
variable deltaxz equal -0.02*xz
variable deltayz equal -0.02*yz
change_box all xy delta -0.27558772672004 remap units box
Changing box ...
  triclinic box = (-0.1215658 -0.095187668 -0.15010269) to (16.843795 13.684199 17.466231) with tilt (-7.7249031 -0.31246888 -0.018300871)

# Relax atoms positions

minimize 0 1e-10 100000 100000
Generated 6 of 6 mixed pair_coeff terms from arithmetic mixing rule
For more information see https://docs.lammps.org/err0027 (src/domain.cpp:1052)
Step          Temp          E_pair         E_mol          TotEng         Press
250417   304.57334     -426.30964      711.00276      634.22509      3135.609
Loop time of 0.0557795 on 1 procs for 67 steps with 386 atoms

Minimization stats:
  Stopping criterion = linesearch alpha is zero
  Energy initial, next-to-last, final =
  Force two-norm initial, final = 185.21163 8.8095762
  Force max component initial, final = 17.859143 1.2499828
  Final line search alpha, max atom move = 1.224752e-10 1.530919e-10
  Iterations, force evaluations = 67 189

# Obtain new stress tensor

variable tmp equal pxx
variable pxx1 equal -4370.62221188024
variable tmp equal pyy
variable pyy1 equal -6892.92482943546
variable tmp equal pzz
variable pzz1 equal 2075.57894583344
variable tmp equal pxy
variable pxy1 equal 4265.29587453238
variable tmp equal pxz
variable pxz1 equal 2200.22324906419
variable tmp equal pyz
variable pyz1 equal 174.081499392204

# Compute elastic constant from pressure tensor

variable C1neg equal -37.9995811785295
variable C2neg equal -53.9685504678837
variable C3neg equal -8.50187535711845
variable C4neg equal 9.45447401346302
variable C5neg equal 4.9320345077978
variable C6neg equal 14.3882066863166

# Reset box and simulation parameters

clear
box tilt large

The 'box' command has been removed and will be ignored

read_restart restart_333U-50C-48-vasp.equil
Reading restart file ...
  restart file = 10 Sep 2025, LAMMPS = 10 Sep 2025
  restoring atom style full from restart
  triclinic box = (-0.1215658 -0.095187668 -0.15010269) to (16.843795 13.684199 17.466231) with tilt (-7.4493154 -0.31246888 -0.018300871)
  restoring pair style lj/cut from restart
  restoring bond style harmonic from restart
  restoring angle style hybrid from restart
  restoring dihedral style harmonic from restart
  386 atoms
  411 bonds
  781 angles
  987 dihedrals
Finding 1-2 1-3 1-4 neighbors ...
     4 = max # of 1-2 neighbors
     8 = max # of 1-3 neighbors
    12 = max # of special neighbors
  read_restart CPU = 0.001 seconds
include ./input/angles_333U-50C-48-vasp.mod
angle_style hybrid fourier cosine/periodic
angle_coeff 1 fourier 58.020602        0.343737        0.374972        0.281246
angle_coeff 2 fourier 83.380072        0.343737        0.374972        0.281246
angle_coeff 3 fourier 157.882480        0.343737        0.374972        0.281246
angle_coeff 4 fourier 221.735285        0.343737        0.374972        0.281246
angle_coeff 5 fourier 114.246973        0.343737        0.374972        0.281246
angle_coeff 6 fourier 32.417871        0.343737        0.374972        0.281246
angle_coeff 7 fourier 90.420412        0.343737        0.374972        0.281246
angle_coeff 8 fourier 75.498766        0.343737        0.374972        0.281246
angle_coeff 9 cosine/periodic 88.853997              -1               3

# Positive deformation

variable delta equal 0.02*13.779386336002
variable deltaxy equal 0.02*xy
variable deltaxz equal 0.02*xz
variable deltayz equal 0.02*yz
change_box all xy delta 0.27558772672004 remap units box
Changing box ...
  triclinic box = (-0.1215658 -0.095187668 -0.15010269) to (16.843795 13.684199 17.466231) with tilt (-7.1737277 -0.31246888 -0.018300871)

# Relax atoms positions

minimize 0 1e-10 100000 100000
Generated 6 of 6 mixed pair_coeff terms from arithmetic mixing rule
For more information see https://docs.lammps.org/err0027 (src/domain.cpp:1052)
Step          Temp          E_pair         E_mol          TotEng         Press
250417   304.57334     -425.60553      705.09813      629.02459      3744.2612
Loop time of 0.0338249 on 1 procs for 33 steps with 386 atoms

Minimization stats:
  Stopping criterion = linesearch alpha is zero
  Energy initial, next-to-last, final =
  Force two-norm initial, final = 183.98347 20.662011
  Force max component initial, final = 17.272342 3.0870104
  Final line search alpha, max atom move = 1.5914145e-11 4.912713e-11
  Iterations, force evaluations = 33 123

# Obtain new stress tensor

variable tmp equal pe
variable e1 equal 168.726915672365
variable tmp equal press
variable p1 equal -1643.53418478897
variable tmp equal pxx
variable pxx1 equal -4535.23209832475
variable tmp equal pyy
variable pyy1 equal -3453.68897179637
variable tmp equal pzz
variable pzz1 equal 3058.3185157542
variable tmp equal pxy
variable pxy1 equal -5422.75771221609
variable tmp equal pxz
variable pxz1 equal 2328.10046896043
variable tmp equal pyz
variable pyz1 equal -180.49770057439

# Compute elastic constant from pressure tensor

variable C1pos equal 38.822630610752
variable C2pos equal 36.7723711796882
variable C3pos equal 3.58817750751465
variable C4pos equal -7.68157801363005
variable C5pos equal -5.571420607279
variable C6pos equal 34.0520612474257

# Combine positive and negative

variable C16 equal 0.5*(-37.9995811785295+38.822630610752)
variable C26 equal 0.5*(-53.9685504678837+36.7723711796882)
variable C36 equal 0.5*(-8.50187535711845+3.58817750751465)
variable C46 equal 0.5*(9.45447401346302+-7.68157801363005)
variable C56 equal 0.5*(4.9320345077978+-5.571420607279)
variable C66 equal 0.5*(14.3882066863166+34.0520612474257)

# Delete dir to make sure it is not reused

variable dir delete

# Output final values

variable C11all equal 57.762848110402
variable C22all equal 71.1863863692169
variable C33all equal 65.8989176049809

variable C12all equal 0.5*(26.6804673464506+21.3023961294503)
variable C13all equal 0.5*(29.8653194828835+29.1065776062744)
variable C23all equal 0.5*(28.8283056482723+26.8249176868284)

variable C44all equal 20.4247062020007
variable C55all equal 20.3544358818703
variable C66all equal 24.2201339668711

variable C14all equal 0.5*(-0.677791566016399+-2.38004987961569)
variable C15all equal 0.5*(-4.1296463608615+-3.45767908359385)
variable C16all equal 0.5*(0.411524716111249+-0.766256847823334)

variable C24all equal 0.5*(1.4209434543242+-4.07213635647263)
variable C25all equal 0.5*(-6.59403880849515+-1.777526961359)
variable C26all equal 0.5*(-8.59808964409775+-3.05420459387549)

variable C34all equal 0.5*(0.525630930097275+-2.87668510808544)
variable C35all equal 0.5*(-0.99059519147375+-0.2107234572931)
variable C36all equal 0.5*(-2.4568489248019+-2.10124401505897)

variable C45all equal 0.5*(2.30496166245971+0.63320277893955)
variable C46all equal 0.5*(0.886447999916485+-0.71467634273007)
variable C56all equal 0.5*(-0.3196930497406+0.348417273967265)

# Average moduli for cubic crystals

variable C11cubic equal (57.762848110402+71.1863863692169+65.8989176049809)/3.0
variable C12cubic equal (23.9914317379504+29.4859485445789+27.8266116675503)/3.0
variable C44cubic equal (20.4247062020007+20.3544358818703+24.2201339668711)/3.0

variable bulkmodulus equal (64.9493840281999+2*27.1013306500265)/3.0
variable shearmodulus1 equal 21.6664253502474
variable shearmodulus2 equal (64.9493840281999-27.1013306500265)/2.0
variable poissonratio equal 1.0/(1.0+64.9493840281999/27.1013306500265)

Elastic Constant 1 1 = 57.762848110402
Elastic Constant 2 2 = 71.1863863692169
Elastic Constant 3 3 = 65.8989176049809

Elastic Constant 1 2 = 23.9914317379504
Elastic Constant 1 3 = 29.4859485445789
Elastic Constant 2 3 = 27.8266116675503

Elastic Constant 4 4 = 20.4247062020007
Elastic Constant 5 5 = 20.3544358818703
Elastic Constant 6 6 = 24.2201339668711

Elastic Constant 1 4 = -1.52892072281604
Elastic Constant 1 5 = -3.79366272222767
Elastic Constant 1 6 = -0.177366065856043

Elastic Constant 2 4 = -1.32559645107421
Elastic Constant 2 5 = -4.18578288492708
Elastic Constant 2 6 = -5.82614711898662

Elastic Constant 3 4 = -1.17552708899408
Elastic Constant 3 5 = -0.600659324383425
Elastic Constant 3 6 = -2.27904646993044

Elastic Constant 4 5 = 1.46908222069963
Elastic Constant 4 6 = 0.0858858285932075
Elastic Constant 5 6 = 0.0143621121133325

Bulk Modulus = 39.717348442751 GPa
Shear Modulus 1 = 21.6664253502474 GPa
Shear Modulus 2 = 18.9240266890867 GPa
Poisson Ratio = 0.294417384425121

variable rho equal density
density (g/cm^3) = 1.64494721118817
