units           real
atom_style      full
boundary        p p p

pair_style      lj/cut 5.000
bond_style      harmonic
angle_style     hybrid cosine/periodic fourier
dihedral_style  harmonic

pair_modify     tail yes mix arithmetic
special_bonds   lj/coul 0.0 0.0 1.0
dielectric      1.0
box tilt        large

The 'box' command has been removed and will be ignored

read_data       ./dat/data.333-EXP-1-vasp
Reading data file ...
  triclinic box = (0 0 0) to (14.748733 13.43183 16.609572) with tilt (-6.197201 -1.004749 -1.860559)
  reading atoms ...
  271 atoms
  scanning bonds ...
  scanning angles ...
  scanning dihedrals ...
  triclinic box = (0 0 0) to (14.748733 13.43183 16.609572) with tilt (-6.197201 -1.004749 -1.860559)
  reading bonds ...
  291 bonds
  reading angles ...
  551 angles
  reading dihedrals ...
  687 dihedrals
Finding 1-2 1-3 1-4 neighbors ...
     4 = max # of 1-2 neighbors
     8 = max # of 1-3 neighbors
    12 = max # of special neighbors

#### Atom Groupings ####
group           fram     id   1:271
271 atoms in group fram
#### END Atom Groupings ####

compute am all property/atom mass
dump        atom_pos all extxyz 100 ./output/333-EXP-1-vasp.lammpstrj
dump_modify atom_pos element Si H C O mass yes
thermo          1000
thermo_style    custom step temp pe ke etotal press vol density

variable up equal 2e-2
variable cfac equal 1.0e-4
variable cunits string GPa

# Define minimization parameters
variable etol equal 0.0
variable ftol equal 1.0e-10
variable maxiter equal 100000
variable maxeval equal 100000
variable dmax equal 1.0e-2

variable temp equal 300.0
variable thermal_damp index 100.0
variable pressure_damp index 500.0

fix relax all box/relax aniso 0.0 vmax 0.001
unfix relax
minimize 0 1e-10 100000 100000
Generated 6 of 6 mixed pair_coeff terms from arithmetic mixing rule
For more information see https://docs.lammps.org/err0027 (src/domain.cpp:1052)
Step          Temp          PotEng         KinEng         TotEng         Press          Volume        Density
0   0              991.8972       0              991.8972       74986.132      3290.3973      1.5329521
Loop time of 0.0347794 on 1 procs for 76 steps with 271 atoms

Minimization stats:
  Stopping criterion = linesearch alpha is zero
  Energy initial, next-to-last, final =
  Force two-norm initial, final = 802.70186 20.343616
  Force max component initial, final = 96.110546 3.9627581
  Final line search alpha, max atom move = 2.7366789e-11 1.0844796e-10
  Iterations, force evaluations = 76 203

# Generating the full routine as described in the paper for UFF
fix nvt_relax   all nvt temp 300 300 100.0
run 100000      # 100 picoseconds
Generated 6 of 6 mixed pair_coeff terms from arithmetic mixing rule
For more information see https://docs.lammps.org/err0027 (src/domain.cpp:1052)
Step          Temp          PotEng         KinEng         TotEng         Press          Volume        Density
76   0             -51.603304      0             -51.603304      1543.6864      3290.3973      1.5329521
Averages over the last 51 of 102 rows, steps 51000 to 100076:
Temp PotEng KinEng TotEng Press Volume Density
302.061 95.6566 243.104 338.761 8057.55 3290.4 1.53295
Loop time of 16.2714 on 1 procs for 100000 steps with 271 atoms

unfix           nvt_relax

fix npt_relax   all npt temp 300 300 100.0 iso 0 0 500.0
run 100000      # 100 picoseconds
Generated 6 of 6 mixed pair_coeff terms from arithmetic mixing rule
For more information see https://docs.lammps.org/err0027 (src/domain.cpp:1052)
Step          Temp          PotEng         KinEng         TotEng         Press          Volume        Density
100076   286.42456      94.495553      230.51985      325.0154       9190.4056      3290.3973      1.5329521
Averages over the last 51 of 102 rows, steps 151000 to 200076:
Temp PotEng KinEng TotEng Press Volume Density
299.427 84.1732 240.984 325.158 1121.65 3437.68 1.46737
Loop time of 18.2875 on 1 procs for 100000 steps with 271 atoms

unfix           npt_relax

# run 100000      # 100 picoseconds
# unfix           nvt_heat
#
# run 100000      # 100 picoseconds
# unfix           npt_heat
#
# run 700000      # 700 picoseconds
# unfix           cooling_npt
#
# run 100000      # 100 picoseconds
# unfix           npt_final

# density computation
variable rho equal density
fix integrate  all npt temp 300 300 100.0 iso 0 0 500.0
fix rho50k all ave/time 10 5000 50000 v_rho mode scalar ave one
run 50000
Generated 6 of 6 mixed pair_coeff terms from arithmetic mixing rule
For more information see https://docs.lammps.org/err0027 (src/domain.cpp:1052)
Step          Temp          PotEng         KinEng         TotEng         Press          Volume        Density
200076   282.78225      77.373342      227.58845      304.96179      3619.7431      3399.5746      1.4837214
Averages over the last 26 of 52 rows, steps 226000 to 250076:
Temp PotEng KinEng TotEng Press Volume Density
302.935 78.8953 243.808 322.703 118.566 3446.72 1.4635
Loop time of 8.77298 on 1 procs for 50000 steps with 271 atoms

unfix integrate
unfix rho50k

# Compute initial state
fix 3 all box/relax  aniso 0.0
minimize 0 1e-10 100000 100000
Generated 6 of 6 mixed pair_coeff terms from arithmetic mixing rule
 (src/min.cpp:222)
For more information see https://docs.lammps.org/err0027 (src/domain.cpp:1052)
Step          Temp          PotEng         KinEng         TotEng         Press          Volume        Density
250076   306.92185      87.332912      247.01645      334.34936      1467.369       3439.232       1.4666127
Loop time of 0.041331 on 1 procs for 188 steps with 271 atoms

Minimization stats:
  Stopping criterion = linesearch alpha is zero
  Energy initial, next-to-last, final =
  Force two-norm initial, final = 592.37798 105.35566
  Force max component initial, final = 135.00191 15.058476
  Final line search alpha, max atom move = 8.3545829e-13 1.2580729e-11
  Iterations, force evaluations = 188 211

variable tmp equal pxx
variable pxx0 equal 3415.47935178721
variable tmp equal pyy
variable pyy0 equal 2578.93523592443
variable tmp equal pzz
variable pzz0 equal 3026.01602691984
variable tmp equal pyz
variable pyz0 equal 242.857803636213
variable tmp equal pxz
variable pxz0 equal -2117.48179513113
variable tmp equal pxy
variable pxy0 equal 105.41065984637

variable tmp equal lx
variable lx0 equal 15.0041667199516
variable tmp equal ly
variable ly0 equal 13.6112790951766
variable tmp equal lz
variable lz0 equal 16.8431396103833

# These formulas define the derivatives w.r.t. strain components
# Constants uses $, variables use v_
variable d1 equal -(v_pxx1-3415.47935178721)/(v_delta/v_len0)*0.0001
variable d2 equal -(v_pyy1-2578.93523592443)/(v_delta/v_len0)*0.0001
variable d3 equal -(v_pzz1-3026.01602691984)/(v_delta/v_len0)*0.0001
variable d4 equal -(v_pyz1-242.857803636213)/(v_delta/v_len0)*0.0001
variable d5 equal -(v_pxz1--2117.48179513113)/(v_delta/v_len0)*0.0001
variable d6 equal -(v_pxy1-105.41065984637)/(v_delta/v_len0)*0.0001

# Write restart
unfix 3
write_restart restart_333-EXP-1-vasp.equil
System init for write_restart ...
Generated 6 of 6 mixed pair_coeff terms from arithmetic mixing rule

# uxx Perturbation

variable dir equal 1
include ./input/displace_333-EXP-1-vasp.mod
variable len0 equal 15.0041667199516

# Reset box and simulation parameters

clear
box tilt large

The 'box' command has been removed and will be ignored

read_restart restart_333-EXP-1-vasp.equil
Reading restart file ...
  restart file = 10 Sep 2025, LAMMPS = 10 Sep 2025
  restoring atom style full from restart
  triclinic box = (-0.12771686 -0.089724548 -0.11678381) to (14.87645 13.521555 16.726356) with tilt (-6.2799955 -1.018878 -1.8867226)
  restoring pair style lj/cut from restart
  restoring bond style harmonic from restart
  restoring angle style hybrid from restart
  restoring dihedral style harmonic from restart
  271 atoms
  291 bonds
  551 angles
  687 dihedrals
Finding 1-2 1-3 1-4 neighbors ...
     4 = max # of 1-2 neighbors
     8 = max # of 1-3 neighbors
    12 = max # of special neighbors
  read_restart CPU = 0.002 seconds
include ./input/angles_333-EXP-1-vasp.mod
angle_style hybrid fourier cosine/periodic
angle_coeff 1 fourier 58.020602        0.343737        0.374972        0.281246
angle_coeff 2 fourier 83.380072        0.343737        0.374972        0.281246
angle_coeff 3 fourier 157.882480        0.343737        0.374972        0.281246
angle_coeff 4 fourier 221.735285        0.343737        0.374972        0.281246
angle_coeff 5 fourier 32.417871        0.343737        0.374972        0.281246
angle_coeff 6 fourier 114.246973        0.343737        0.374972        0.281246
angle_coeff 7 fourier 90.420412        0.343737        0.374972        0.281246
angle_coeff 8 fourier 75.498766        0.343737        0.374972        0.281246
angle_coeff 9 cosine/periodic 88.853997              -1               3

# Negative deformation

variable delta equal -0.02*15.0041667199516
variable deltaxy equal -0.02*xy
variable deltaxz equal -0.02*xz
variable deltayz equal -0.02*yz
change_box all x delta 0 -0.300083334399032 xy delta 0.125599910689622 xz delta 0.0203775602169571 remap units box
Changing box ...
  triclinic box = (-0.12771686 -0.089724548 -0.11678381) to (14.576367 13.521555 16.726356) with tilt (-6.2799955 -1.018878 -1.8867226)
  triclinic box = (-0.12771686 -0.089724548 -0.11678381) to (14.576367 13.521555 16.726356) with tilt (-6.1543956 -1.018878 -1.8867226)
  triclinic box = (-0.12771686 -0.089724548 -0.11678381) to (14.576367 13.521555 16.726356) with tilt (-6.1543956 -0.99850045 -1.8867226)

# Relax atoms positions

minimize 0 1e-10 100000 100000
Generated 6 of 6 mixed pair_coeff terms from arithmetic mixing rule
For more information see https://docs.lammps.org/err0027 (src/domain.cpp:1052)
Step          Temp          E_pair         E_mol          TotEng         Press
250264   306.92185     -335.45613      281.0159       192.57621      24429.769
Loop time of 0.0191203 on 1 procs for 32 steps with 271 atoms

Minimization stats:
  Stopping criterion = linesearch alpha is zero
  Energy initial, next-to-last, final =
  Force two-norm initial, final = 186.51573 16.497198
  Force max component initial, final = 22.506795 2.8352828
  Final line search alpha, max atom move = 4.2155667e-11 1.1952324e-10
  Iterations, force evaluations = 32 119

# Obtain new stress tensor

variable tmp equal pxx
variable pxx1 equal 7989.55083365517
variable tmp equal pyy
variable pyy1 equal 4607.90470124734
variable tmp equal pzz
variable pzz1 equal 5272.92304831696
variable tmp equal pxy
variable pxy1 equal 558.413779760608
variable tmp equal pxz
variable pxz1 equal -1065.13423968666
variable tmp equal pyz
variable pyz1 equal 10.1270466966855

# Compute elastic constant from pressure tensor

variable C1neg equal 22.8703574093398
variable C2neg equal 10.1448473266146
variable C3neg equal 11.2345351069856
variable C4neg equal -1.16365378469764
variable C5neg equal 5.26173777722235
variable C6neg equal 2.26501559957119

# Reset box and simulation parameters

clear
box tilt large

The 'box' command has been removed and will be ignored

read_restart restart_333-EXP-1-vasp.equil
Reading restart file ...
  restart file = 10 Sep 2025, LAMMPS = 10 Sep 2025
  restoring atom style full from restart
  triclinic box = (-0.12771686 -0.089724548 -0.11678381) to (14.87645 13.521555 16.726356) with tilt (-6.2799955 -1.018878 -1.8867226)
  restoring pair style lj/cut from restart
  restoring bond style harmonic from restart
  restoring angle style hybrid from restart
  restoring dihedral style harmonic from restart
  271 atoms
  291 bonds
  551 angles
  687 dihedrals
Finding 1-2 1-3 1-4 neighbors ...
     4 = max # of 1-2 neighbors
     8 = max # of 1-3 neighbors
    12 = max # of special neighbors
  read_restart CPU = 0.002 seconds
include ./input/angles_333-EXP-1-vasp.mod
angle_style hybrid fourier cosine/periodic
angle_coeff 1 fourier 58.020602        0.343737        0.374972        0.281246
angle_coeff 2 fourier 83.380072        0.343737        0.374972        0.281246
angle_coeff 3 fourier 157.882480        0.343737        0.374972        0.281246
angle_coeff 4 fourier 221.735285        0.343737        0.374972        0.281246
angle_coeff 5 fourier 32.417871        0.343737        0.374972        0.281246
angle_coeff 6 fourier 114.246973        0.343737        0.374972        0.281246
angle_coeff 7 fourier 90.420412        0.343737        0.374972        0.281246
angle_coeff 8 fourier 75.498766        0.343737        0.374972        0.281246
angle_coeff 9 cosine/periodic 88.853997              -1               3

# Positive deformation

variable delta equal 0.02*15.0041667199516
variable deltaxy equal 0.02*xy
variable deltaxz equal 0.02*xz
variable deltayz equal 0.02*yz
change_box all x delta 0 0.300083334399032 xy delta -0.125599910689622 xz delta -0.0203775602169571 remap units box
Changing box ...
  triclinic box = (-0.12771686 -0.089724548 -0.11678381) to (15.176533 13.521555 16.726356) with tilt (-6.2799955 -1.018878 -1.8867226)
  triclinic box = (-0.12771686 -0.089724548 -0.11678381) to (15.176533 13.521555 16.726356) with tilt (-6.4055954 -1.018878 -1.8867226)
  triclinic box = (-0.12771686 -0.089724548 -0.11678381) to (15.176533 13.521555 16.726356) with tilt (-6.4055954 -1.0392556 -1.8867226)

# Relax atoms positions

minimize 0 1e-10 100000 100000
Generated 6 of 6 mixed pair_coeff terms from arithmetic mixing rule
For more information see https://docs.lammps.org/err0027 (src/domain.cpp:1052)
Step          Temp          E_pair         E_mol          TotEng         Press
250264   306.92185     -348.04195      295.67485      194.64935     -17811.674
Loop time of 0.0204149 on 1 procs for 37 steps with 271 atoms

Minimization stats:
  Stopping criterion = linesearch alpha is zero
  Energy initial, next-to-last, final =
  Force two-norm initial, final = 179.82109 13.870706
  Force max component initial, final = 24.260952 2.0764758
  Final line search alpha, max atom move = 4.7961179e-11 9.9590229e-11
  Iterations, force evaluations = 37 129

# Obtain new stress tensor

variable tmp equal pe
variable e1 equal -149.964224673611
variable tmp equal press
variable p1 equal -2684.05649023095
variable tmp equal pxx
variable pxx1 equal -8571.23835469715
variable tmp equal pyy
variable pyy1 equal 649.492711077297
variable tmp equal pzz
variable pzz1 equal -130.423827072993
variable tmp equal pxy
variable pxy1 equal -61.6321401586078
variable tmp equal pxz
variable pxz1 equal -361.064349281828
variable tmp equal pyz
variable pyz1 equal 713.720815368076

# Compute elastic constant from pressure tensor

variable C1pos equal 59.9335885324218
variable C2pos equal 9.64721262423567
variable C3pos equal 15.7821992699642
variable C4pos equal -2.35431505865932
variable C5pos equal -8.78208722924651
variable C6pos equal 0.835214000024889

# Combine positive and negative

variable C11 equal 0.5*(22.8703574093398+59.9335885324218)
variable C21 equal 0.5*(10.1448473266146+9.64721262423567)
variable C31 equal 0.5*(11.2345351069856+15.7821992699642)
variable C41 equal 0.5*(-1.16365378469764+-2.35431505865932)
variable C51 equal 0.5*(5.26173777722235+-8.78208722924651)
variable C61 equal 0.5*(2.26501559957119+0.835214000024889)

# Delete dir to make sure it is not reused

variable dir delete

# uyy Perturbation

variable dir equal 2
include ./input/displace_333-EXP-1-vasp.mod
variable len0 equal 13.6112790951766

# Reset box and simulation parameters

clear
box tilt large

The 'box' command has been removed and will be ignored

read_restart restart_333-EXP-1-vasp.equil
Reading restart file ...
  restart file = 10 Sep 2025, LAMMPS = 10 Sep 2025
  restoring atom style full from restart
  triclinic box = (-0.12771686 -0.089724548 -0.11678381) to (14.87645 13.521555 16.726356) with tilt (-6.2799955 -1.018878 -1.8867226)
  restoring pair style lj/cut from restart
  restoring bond style harmonic from restart
  restoring angle style hybrid from restart
  restoring dihedral style harmonic from restart
  271 atoms
  291 bonds
  551 angles
  687 dihedrals
Finding 1-2 1-3 1-4 neighbors ...
     4 = max # of 1-2 neighbors
     8 = max # of 1-3 neighbors
    12 = max # of special neighbors
  read_restart CPU = 0.001 seconds
include ./input/angles_333-EXP-1-vasp.mod
angle_style hybrid fourier cosine/periodic
angle_coeff 1 fourier 58.020602        0.343737        0.374972        0.281246
angle_coeff 2 fourier 83.380072        0.343737        0.374972        0.281246
angle_coeff 3 fourier 157.882480        0.343737        0.374972        0.281246
angle_coeff 4 fourier 221.735285        0.343737        0.374972        0.281246
angle_coeff 5 fourier 32.417871        0.343737        0.374972        0.281246
angle_coeff 6 fourier 114.246973        0.343737        0.374972        0.281246
angle_coeff 7 fourier 90.420412        0.343737        0.374972        0.281246
angle_coeff 8 fourier 75.498766        0.343737        0.374972        0.281246
angle_coeff 9 cosine/periodic 88.853997              -1               3

# Negative deformation

variable delta equal -0.02*13.6112790951766
variable deltaxy equal -0.02*xy
variable deltaxz equal -0.02*xz
variable deltayz equal -0.02*yz
change_box all y delta 0 -0.272225581903532 yz delta 0.037734452146458 remap units box
Changing box ...
  triclinic box = (-0.12771686 -0.089724548 -0.11678381) to (14.87645 13.249329 16.726356) with tilt (-6.2799955 -1.018878 -1.8867226)
  triclinic box = (-0.12771686 -0.089724548 -0.11678381) to (14.87645 13.249329 16.726356) with tilt (-6.2799955 -1.018878 -1.8489882)

# Relax atoms positions

minimize 0 1e-10 100000 100000
Generated 6 of 6 mixed pair_coeff terms from arithmetic mixing rule
For more information see https://docs.lammps.org/err0027 (src/domain.cpp:1052)
Step          Temp          E_pair         E_mol          TotEng         Press
250264   306.92185     -335.6147       282.68194      194.08369      25239.665
Loop time of 0.0193761 on 1 procs for 31 steps with 271 atoms

Minimization stats:
  Stopping criterion = linesearch alpha is zero
  Energy initial, next-to-last, final =
  Force two-norm initial, final = 189.02139 16.073569
  Force max component initial, final = 22.558509 2.2897528
  Final line search alpha, max atom move = 3.1030329e-11 7.1051781e-11
  Iterations, force evaluations = 31 118

# Obtain new stress tensor

variable tmp equal pxx
variable pxx1 equal 1436.34492337704
variable tmp equal pyy
variable pyy1 equal 10045.0436101191
variable tmp equal pzz
variable pzz1 equal 5344.59512674582
variable tmp equal pxy
variable pxy1 equal -638.337530830022
variable tmp equal pxz
variable pxz1 equal -848.513161490976
variable tmp equal pyz
variable pyz1 equal 750.469592442985

# Compute elastic constant from pressure tensor

variable C1neg equal -9.89567214205085
variable C2neg equal 37.3305418709734
variable C3neg equal 11.5928954991299
variable C4neg equal 2.53805894403386
variable C5neg equal 6.34484316820077
variable C6neg equal -3.71874095338196

# Reset box and simulation parameters

clear
box tilt large

The 'box' command has been removed and will be ignored

read_restart restart_333-EXP-1-vasp.equil
Reading restart file ...
  restart file = 10 Sep 2025, LAMMPS = 10 Sep 2025
  restoring atom style full from restart
  triclinic box = (-0.12771686 -0.089724548 -0.11678381) to (14.87645 13.521555 16.726356) with tilt (-6.2799955 -1.018878 -1.8867226)
  restoring pair style lj/cut from restart
  restoring bond style harmonic from restart
  restoring angle style hybrid from restart
  restoring dihedral style harmonic from restart
  271 atoms
  291 bonds
  551 angles
  687 dihedrals
Finding 1-2 1-3 1-4 neighbors ...
     4 = max # of 1-2 neighbors
     8 = max # of 1-3 neighbors
    12 = max # of special neighbors
  read_restart CPU = 0.001 seconds
include ./input/angles_333-EXP-1-vasp.mod
angle_style hybrid fourier cosine/periodic
angle_coeff 1 fourier 58.020602        0.343737        0.374972        0.281246
angle_coeff 2 fourier 83.380072        0.343737        0.374972        0.281246
angle_coeff 3 fourier 157.882480        0.343737        0.374972        0.281246
angle_coeff 4 fourier 221.735285        0.343737        0.374972        0.281246
angle_coeff 5 fourier 32.417871        0.343737        0.374972        0.281246
angle_coeff 6 fourier 114.246973        0.343737        0.374972        0.281246
angle_coeff 7 fourier 90.420412        0.343737        0.374972        0.281246
angle_coeff 8 fourier 75.498766        0.343737        0.374972        0.281246
angle_coeff 9 cosine/periodic 88.853997              -1               3

# Positive deformation

variable delta equal 0.02*13.6112790951766
variable deltaxy equal 0.02*xy
variable deltaxz equal 0.02*xz
variable deltayz equal 0.02*yz
change_box all y delta 0 0.272225581903532 yz delta -0.037734452146458 remap units box
Changing box ...
  triclinic box = (-0.12771686 -0.089724548 -0.11678381) to (14.87645 13.79378 16.726356) with tilt (-6.2799955 -1.018878 -1.8867226)
  triclinic box = (-0.12771686 -0.089724548 -0.11678381) to (14.87645 13.79378 16.726356) with tilt (-6.2799955 -1.018878 -1.9244571)

# Relax atoms positions

minimize 0 1e-10 100000 100000
Generated 6 of 6 mixed pair_coeff terms from arithmetic mixing rule
For more information see https://docs.lammps.org/err0027 (src/domain.cpp:1052)
Step          Temp          E_pair         E_mol          TotEng         Press
250264   306.92185     -348.5142       296.66445      195.1667      -18649.271
Loop time of 0.0225911 on 1 procs for 43 steps with 271 atoms

Minimization stats:
  Stopping criterion = linesearch alpha is zero
  Energy initial, next-to-last, final =
  Force two-norm initial, final = 184.06662 11.205412
  Force max component initial, final = 23.857201 1.6440711
  Final line search alpha, max atom move = 5.7377675e-11 9.4332978e-11
  Iterations, force evaluations = 43 141

# Obtain new stress tensor

variable tmp equal pe
variable e1 equal -155.709987839278
variable tmp equal press
variable p1 equal -2026.28870291324
variable tmp equal pxx
variable pxx1 equal -2988.50924608145
variable tmp equal pyy
variable pyy1 equal -3203.68662062987
variable tmp equal pzz
variable pzz1 equal 113.329757971602
variable tmp equal pxy
variable pxy1 equal 1099.06849524199
variable tmp equal pxz
variable pxz1 equal -479.023608512224
variable tmp equal pyz
variable pyz1 equal -124.835497623331

# Compute elastic constant from pressure tensor

variable C1pos equal 32.0199429893433
variable C2pos equal 28.9131092827715
variable C3pos equal 14.5634313447412
variable C4pos equal 1.83846650629772
variable C5pos equal -8.19229093309453
variable C6pos equal -4.9682891769781

# Combine positive and negative

variable C12 equal 0.5*(-9.89567214205085+32.0199429893433)
variable C22 equal 0.5*(37.3305418709734+28.9131092827715)
variable C32 equal 0.5*(11.5928954991299+14.5634313447412)
variable C42 equal 0.5*(2.53805894403386+1.83846650629772)
variable C52 equal 0.5*(6.34484316820077+-8.19229093309453)
variable C62 equal 0.5*(-3.71874095338196+-4.9682891769781)

# Delete dir to make sure it is not reused

variable dir delete

# uzz Perturbation

variable dir equal 3
include ./input/displace_333-EXP-1-vasp.mod
variable len0 equal 16.8431396103833

# Reset box and simulation parameters

clear
box tilt large

The 'box' command has been removed and will be ignored

read_restart restart_333-EXP-1-vasp.equil
Reading restart file ...
  restart file = 10 Sep 2025, LAMMPS = 10 Sep 2025
  restoring atom style full from restart
  triclinic box = (-0.12771686 -0.089724548 -0.11678381) to (14.87645 13.521555 16.726356) with tilt (-6.2799955 -1.018878 -1.8867226)
  restoring pair style lj/cut from restart
  restoring bond style harmonic from restart
  restoring angle style hybrid from restart
  restoring dihedral style harmonic from restart
  271 atoms
  291 bonds
  551 angles
  687 dihedrals
Finding 1-2 1-3 1-4 neighbors ...
     4 = max # of 1-2 neighbors
     8 = max # of 1-3 neighbors
    12 = max # of special neighbors
  read_restart CPU = 0.001 seconds
include ./input/angles_333-EXP-1-vasp.mod
angle_style hybrid fourier cosine/periodic
angle_coeff 1 fourier 58.020602        0.343737        0.374972        0.281246
angle_coeff 2 fourier 83.380072        0.343737        0.374972        0.281246
angle_coeff 3 fourier 157.882480        0.343737        0.374972        0.281246
angle_coeff 4 fourier 221.735285        0.343737        0.374972        0.281246
angle_coeff 5 fourier 32.417871        0.343737        0.374972        0.281246
angle_coeff 6 fourier 114.246973        0.343737        0.374972        0.281246
angle_coeff 7 fourier 90.420412        0.343737        0.374972        0.281246
angle_coeff 8 fourier 75.498766        0.343737        0.374972        0.281246
angle_coeff 9 cosine/periodic 88.853997              -1               3

# Negative deformation

variable delta equal -0.02*16.8431396103833
variable deltaxy equal -0.02*xy
variable deltaxz equal -0.02*xz
variable deltayz equal -0.02*yz
change_box all z delta 0 -0.336862792207666 remap units box
Changing box ...
  triclinic box = (-0.12771686 -0.089724548 -0.11678381) to (14.87645 13.521555 16.389493) with tilt (-6.2799955 -1.018878 -1.8867226)

# Relax atoms positions

minimize 0 1e-10 100000 100000
Generated 6 of 6 mixed pair_coeff terms from arithmetic mixing rule
For more information see https://docs.lammps.org/err0027 (src/domain.cpp:1052)
Step          Temp          E_pair         E_mol          TotEng         Press
250264   306.92185     -333.77974      280.29731      193.53403      25089.3
Loop time of 0.0183142 on 1 procs for 28 steps with 271 atoms

Minimization stats:
  Stopping criterion = linesearch alpha is zero
  Energy initial, next-to-last, final =
  Force two-norm initial, final = 179.78617 20.835999
  Force max component initial, final = 25.667707 2.5606441
  Final line search alpha, max atom move = 1.9077216e-11 4.8849959e-11
  Iterations, force evaluations = 28 113

# Obtain new stress tensor

variable tmp equal pxx
variable pxx1 equal 2084.70793194486
variable tmp equal pyy
variable pyy1 equal 5293.9437163718
variable tmp equal pzz
variable pzz1 equal 10494.9025364349
variable tmp equal pxy
variable pxy1 equal -299.712922109508
variable tmp equal pxz
variable pxz1 equal -245.566920360404
variable tmp equal pyz
variable pyz1 equal 1249.40797247396

# Compute elastic constant from pressure tensor

variable C1neg equal -6.65385709921175
variable C2neg equal 13.5750424022369
variable C3neg equal 37.3444325475753
variable C4neg equal 5.03275084418873
variable C5neg equal 9.35957437385363
variable C6neg equal -2.02561790977939

# Reset box and simulation parameters

clear
box tilt large

The 'box' command has been removed and will be ignored

read_restart restart_333-EXP-1-vasp.equil
Reading restart file ...
  restart file = 10 Sep 2025, LAMMPS = 10 Sep 2025
  restoring atom style full from restart
  triclinic box = (-0.12771686 -0.089724548 -0.11678381) to (14.87645 13.521555 16.726356) with tilt (-6.2799955 -1.018878 -1.8867226)
  restoring pair style lj/cut from restart
  restoring bond style harmonic from restart
  restoring angle style hybrid from restart
  restoring dihedral style harmonic from restart
  271 atoms
  291 bonds
  551 angles
  687 dihedrals
Finding 1-2 1-3 1-4 neighbors ...
     4 = max # of 1-2 neighbors
     8 = max # of 1-3 neighbors
    12 = max # of special neighbors
  read_restart CPU = 0.001 seconds
include ./input/angles_333-EXP-1-vasp.mod
angle_style hybrid fourier cosine/periodic
angle_coeff 1 fourier 58.020602        0.343737        0.374972        0.281246
angle_coeff 2 fourier 83.380072        0.343737        0.374972        0.281246
angle_coeff 3 fourier 157.882480        0.343737        0.374972        0.281246
angle_coeff 4 fourier 221.735285        0.343737        0.374972        0.281246
angle_coeff 5 fourier 32.417871        0.343737        0.374972        0.281246
angle_coeff 6 fourier 114.246973        0.343737        0.374972        0.281246
angle_coeff 7 fourier 90.420412        0.343737        0.374972        0.281246
angle_coeff 8 fourier 75.498766        0.343737        0.374972        0.281246
angle_coeff 9 cosine/periodic 88.853997              -1               3

# Positive deformation

variable delta equal 0.02*16.8431396103833
variable deltaxy equal 0.02*xy
variable deltaxz equal 0.02*xz
variable deltayz equal 0.02*yz
change_box all z delta 0 0.336862792207666 remap units box
Changing box ...
  triclinic box = (-0.12771686 -0.089724548 -0.11678381) to (14.87645 13.521555 17.063219) with tilt (-6.2799955 -1.018878 -1.8867226)

# Relax atoms positions

minimize 0 1e-10 100000 100000
Generated 6 of 6 mixed pair_coeff terms from arithmetic mixing rule
For more information see https://docs.lammps.org/err0027 (src/domain.cpp:1052)
Step          Temp          E_pair         E_mol          TotEng         Press
250264   306.92185     -349.73087      296.52959      193.81517     -18455.649
Loop time of 0.0219256 on 1 procs for 43 steps with 271 atoms

Minimization stats:
  Stopping criterion = linesearch alpha is zero
  Energy initial, next-to-last, final =
  Force two-norm initial, final = 178.76057 11.426599
  Force max component initial, final = 23.46565 1.8493405
  Final line search alpha, max atom move = 6.7094194e-11 1.2408001e-10
  Iterations, force evaluations = 43 141

# Obtain new stress tensor

variable tmp equal pe
variable e1 equal -156.903075654219
variable tmp equal press
variable p1 equal -2598.30819093358
variable tmp equal pxx
variable pxx1 equal -3577.07032685013
variable tmp equal pyy
variable pyy1 equal 492.761354470934
variable tmp equal pzz
variable pzz1 equal -4710.61560042153
variable tmp equal pxy
variable pxy1 equal 451.776959517627
variable tmp equal pxz
variable pxz1 equal -961.054282977316
variable tmp equal pyz
variable pyz1 equal -260.466479327082

# Compute elastic constant from pressure tensor

variable C1pos equal 34.9627483931867
variable C2pos equal 10.4308694072675
variable C3pos equal 38.6831581367069
variable C4pos equal 2.51662141481648
variable C5pos equal -5.78213756076907
variable C6pos equal -1.73183149835629

# Combine positive and negative

variable C13 equal 0.5*(-6.65385709921175+34.9627483931867)
variable C23 equal 0.5*(13.5750424022369+10.4308694072675)
variable C33 equal 0.5*(37.3444325475753+38.6831581367069)
variable C43 equal 0.5*(5.03275084418873+2.51662141481648)
variable C53 equal 0.5*(9.35957437385363+-5.78213756076907)
variable C63 equal 0.5*(-2.02561790977939+-1.73183149835629)

# Delete dir to make sure it is not reused

variable dir delete

# uyz Perturbation

variable dir equal 4
include ./input/displace_333-EXP-1-vasp.mod
variable len0 equal 16.8431396103833

# Reset box and simulation parameters

clear
box tilt large

The 'box' command has been removed and will be ignored

read_restart restart_333-EXP-1-vasp.equil
Reading restart file ...
  restart file = 10 Sep 2025, LAMMPS = 10 Sep 2025
  restoring atom style full from restart
  triclinic box = (-0.12771686 -0.089724548 -0.11678381) to (14.87645 13.521555 16.726356) with tilt (-6.2799955 -1.018878 -1.8867226)
  restoring pair style lj/cut from restart
  restoring bond style harmonic from restart
  restoring angle style hybrid from restart
  restoring dihedral style harmonic from restart
  271 atoms
  291 bonds
  551 angles
  687 dihedrals
Finding 1-2 1-3 1-4 neighbors ...
     4 = max # of 1-2 neighbors
     8 = max # of 1-3 neighbors
    12 = max # of special neighbors
  read_restart CPU = 0.001 seconds
include ./input/angles_333-EXP-1-vasp.mod
angle_style hybrid fourier cosine/periodic
angle_coeff 1 fourier 58.020602        0.343737        0.374972        0.281246
angle_coeff 2 fourier 83.380072        0.343737        0.374972        0.281246
angle_coeff 3 fourier 157.882480        0.343737        0.374972        0.281246
angle_coeff 4 fourier 221.735285        0.343737        0.374972        0.281246
angle_coeff 5 fourier 32.417871        0.343737        0.374972        0.281246
angle_coeff 6 fourier 114.246973        0.343737        0.374972        0.281246
angle_coeff 7 fourier 90.420412        0.343737        0.374972        0.281246
angle_coeff 8 fourier 75.498766        0.343737        0.374972        0.281246
angle_coeff 9 cosine/periodic 88.853997              -1               3

# Negative deformation

variable delta equal -0.02*16.8431396103833
variable deltaxy equal -0.02*xy
variable deltaxz equal -0.02*xz
variable deltayz equal -0.02*yz
change_box all yz delta -0.336862792207666 remap units box
Changing box ...
  triclinic box = (-0.12771686 -0.089724548 -0.11678381) to (14.87645 13.521555 16.726356) with tilt (-6.2799955 -1.018878 -2.2235854)

# Relax atoms positions

minimize 0 1e-10 100000 100000
Generated 6 of 6 mixed pair_coeff terms from arithmetic mixing rule
For more information see https://docs.lammps.org/err0027 (src/domain.cpp:1052)
Step          Temp          E_pair         E_mol          TotEng         Press
250264   306.92185     -343.30302      278.14532      181.85875      2747.8876
Loop time of 0.0196472 on 1 procs for 33 steps with 271 atoms

Minimization stats:
  Stopping criterion = linesearch alpha is zero
  Energy initial, next-to-last, final =
  Force two-norm initial, final = 153.88132 15.340414
  Force max component initial, final = 20.202686 2.1596487
  Final line search alpha, max atom move = 4.9615589e-11 1.0715224e-10
  Iterations, force evaluations = 33 121

# Obtain new stress tensor

variable tmp equal pxx
variable pxx1 equal -1163.86953105333
variable tmp equal pyy
variable pyy1 equal 2534.57768659391
variable tmp equal pzz
variable pzz1 equal 2992.27732105535
variable tmp equal pxy
variable pxy1 equal 316.158348620761
variable tmp equal pxz
variable pxz1 equal -926.120330435257
variable tmp equal pyz
variable pyz1 equal 3079.19975394059

# Compute elastic constant from pressure tensor

variable C1neg equal -22.8967444142027
variable C2neg equal -0.221787746652599
variable C3neg equal -0.16869352932245
variable C4neg equal 14.1817097515219
variable C5neg equal 5.95680732347937
variable C6neg equal 1.05373844387196

# Reset box and simulation parameters

clear
box tilt large

The 'box' command has been removed and will be ignored

read_restart restart_333-EXP-1-vasp.equil
Reading restart file ...
  restart file = 10 Sep 2025, LAMMPS = 10 Sep 2025
  restoring atom style full from restart
  triclinic box = (-0.12771686 -0.089724548 -0.11678381) to (14.87645 13.521555 16.726356) with tilt (-6.2799955 -1.018878 -1.8867226)
  restoring pair style lj/cut from restart
  restoring bond style harmonic from restart
  restoring angle style hybrid from restart
  restoring dihedral style harmonic from restart
  271 atoms
  291 bonds
  551 angles
  687 dihedrals
Finding 1-2 1-3 1-4 neighbors ...
     4 = max # of 1-2 neighbors
     8 = max # of 1-3 neighbors
    12 = max # of special neighbors
  read_restart CPU = 0.001 seconds
include ./input/angles_333-EXP-1-vasp.mod
angle_style hybrid fourier cosine/periodic
angle_coeff 1 fourier 58.020602        0.343737        0.374972        0.281246
angle_coeff 2 fourier 83.380072        0.343737        0.374972        0.281246
angle_coeff 3 fourier 157.882480        0.343737        0.374972        0.281246
angle_coeff 4 fourier 221.735285        0.343737        0.374972        0.281246
angle_coeff 5 fourier 32.417871        0.343737        0.374972        0.281246
angle_coeff 6 fourier 114.246973        0.343737        0.374972        0.281246
angle_coeff 7 fourier 90.420412        0.343737        0.374972        0.281246
angle_coeff 8 fourier 75.498766        0.343737        0.374972        0.281246
angle_coeff 9 cosine/periodic 88.853997              -1               3

# Positive deformation

variable delta equal 0.02*16.8431396103833
variable deltaxy equal 0.02*xy
variable deltaxz equal 0.02*xz
variable deltayz equal 0.02*yz
change_box all yz delta 0.336862792207666 remap units box
Changing box ...
  triclinic box = (-0.12771686 -0.089724548 -0.11678381) to (14.87645 13.521555 16.726356) with tilt (-6.2799955 -1.018878 -1.5498598)

# Relax atoms positions

minimize 0 1e-10 100000 100000
Generated 6 of 6 mixed pair_coeff terms from arithmetic mixing rule
For more information see https://docs.lammps.org/err0027 (src/domain.cpp:1052)
Step          Temp          E_pair         E_mol          TotEng         Press
250264   306.92185     -342.37536      276.37091      181.012        2882.4573
Loop time of 0.0194319 on 1 procs for 33 steps with 271 atoms

Minimization stats:
  Stopping criterion = linesearch alpha is zero
  Energy initial, next-to-last, final =
  Force two-norm initial, final = 154.53665 15.075793
  Force max component initial, final = 19.310217 1.9732311
  Final line search alpha, max atom move = 5.0302117e-11 9.9257703e-11
  Iterations, force evaluations = 33 121

# Obtain new stress tensor

variable tmp equal pe
variable e1 equal -156.727512905534
variable tmp equal press
variable p1 equal 1156.99270979936
variable tmp equal pxx
variable pxx1 equal -464.435744515379
variable tmp equal pyy
variable pyy1 equal 2172.70701391972
variable tmp equal pzz
variable pzz1 equal 1762.70685999374
variable tmp equal pxy
variable pxy1 equal -129.882686531368
variable tmp equal pxz
variable pxz1 equal -339.977171425953
variable tmp equal pyz
variable pyz1 equal -2261.54171984669

# Compute elastic constant from pressure tensor

variable C1pos equal 19.3995754815129
variable C2pos equal 2.03114111002355
variable C3pos equal 6.3165458346305
variable C4pos equal 12.5219976174145
variable C5pos equal -8.88752311852589
variable C6pos equal 1.17646673188869

# Combine positive and negative

variable C14 equal 0.5*(-22.8967444142027+19.3995754815129)
variable C24 equal 0.5*(-0.221787746652599+2.03114111002355)
variable C34 equal 0.5*(-0.16869352932245+6.3165458346305)
variable C44 equal 0.5*(14.1817097515219+12.5219976174145)
variable C54 equal 0.5*(5.95680732347937+-8.88752311852589)
variable C64 equal 0.5*(1.05373844387196+1.17646673188869)

# Delete dir to make sure it is not reused

variable dir delete

# uxz Perturbation

variable dir equal 5
include ./input/displace_333-EXP-1-vasp.mod
variable len0 equal 16.8431396103833

# Reset box and simulation parameters

clear
box tilt large

The 'box' command has been removed and will be ignored

read_restart restart_333-EXP-1-vasp.equil
Reading restart file ...
  restart file = 10 Sep 2025, LAMMPS = 10 Sep 2025
  restoring atom style full from restart
  triclinic box = (-0.12771686 -0.089724548 -0.11678381) to (14.87645 13.521555 16.726356) with tilt (-6.2799955 -1.018878 -1.8867226)
  restoring pair style lj/cut from restart
  restoring bond style harmonic from restart
  restoring angle style hybrid from restart
  restoring dihedral style harmonic from restart
  271 atoms
  291 bonds
  551 angles
  687 dihedrals
Finding 1-2 1-3 1-4 neighbors ...
     4 = max # of 1-2 neighbors
     8 = max # of 1-3 neighbors
    12 = max # of special neighbors
  read_restart CPU = 0.001 seconds
include ./input/angles_333-EXP-1-vasp.mod
angle_style hybrid fourier cosine/periodic
angle_coeff 1 fourier 58.020602        0.343737        0.374972        0.281246
angle_coeff 2 fourier 83.380072        0.343737        0.374972        0.281246
angle_coeff 3 fourier 157.882480        0.343737        0.374972        0.281246
angle_coeff 4 fourier 221.735285        0.343737        0.374972        0.281246
angle_coeff 5 fourier 32.417871        0.343737        0.374972        0.281246
angle_coeff 6 fourier 114.246973        0.343737        0.374972        0.281246
angle_coeff 7 fourier 90.420412        0.343737        0.374972        0.281246
angle_coeff 8 fourier 75.498766        0.343737        0.374972        0.281246
angle_coeff 9 cosine/periodic 88.853997              -1               3

# Negative deformation

variable delta equal -0.02*16.8431396103833
variable deltaxy equal -0.02*xy
variable deltaxz equal -0.02*xz
variable deltayz equal -0.02*yz
change_box all xz delta -0.336862792207666 remap units box
Changing box ...
  triclinic box = (-0.12771686 -0.089724548 -0.11678381) to (14.87645 13.521555 16.726356) with tilt (-6.2799955 -1.3557408 -1.8867226)

# Relax atoms positions

minimize 0 1e-10 100000 100000
Generated 6 of 6 mixed pair_coeff terms from arithmetic mixing rule
For more information see https://docs.lammps.org/err0027 (src/domain.cpp:1052)
Step          Temp          E_pair         E_mol          TotEng         Press
250264   306.92185     -341.7314       274.99103      180.27608      2772.1138
Loop time of 0.0228073 on 1 procs for 43 steps with 271 atoms

Minimization stats:
  Stopping criterion = linesearch alpha is zero
  Energy initial, next-to-last, final =
  Force two-norm initial, final = 150.83875 10.661128
  Force max component initial, final = 15.670334 1.967654
  Final line search alpha, max atom move = 6.0660232e-11 1.1935835e-10
  Iterations, force evaluations = 43 141

# Obtain new stress tensor

variable tmp equal pxx
variable pxx1 equal -1500.32308265644
variable tmp equal pyy
variable pyy1 equal 2860.96500729246
variable tmp equal pzz
variable pzz1 equal 2925.15021423255
variable tmp equal pxy
variable pxy1 equal 736.254483389109
variable tmp equal pxz
variable pxz1 equal 2425.89760627087
variable tmp equal pyz
variable pyz1 equal 58.3262478169543

# Compute elastic constant from pressure tensor

variable C1neg equal -24.5790121722182
variable C2neg equal 1.41014885684015
variable C3neg equal -0.504329063436451
variable C4neg equal -0.922657779096293
variable C5neg equal 22.71689700701
variable C6neg equal 3.1542191177137

# Reset box and simulation parameters

clear
box tilt large

The 'box' command has been removed and will be ignored

read_restart restart_333-EXP-1-vasp.equil
Reading restart file ...
  restart file = 10 Sep 2025, LAMMPS = 10 Sep 2025
  restoring atom style full from restart
  triclinic box = (-0.12771686 -0.089724548 -0.11678381) to (14.87645 13.521555 16.726356) with tilt (-6.2799955 -1.018878 -1.8867226)
  restoring pair style lj/cut from restart
  restoring bond style harmonic from restart
  restoring angle style hybrid from restart
  restoring dihedral style harmonic from restart
  271 atoms
  291 bonds
  551 angles
  687 dihedrals
Finding 1-2 1-3 1-4 neighbors ...
     4 = max # of 1-2 neighbors
     8 = max # of 1-3 neighbors
    12 = max # of special neighbors
  read_restart CPU = 0.001 seconds
include ./input/angles_333-EXP-1-vasp.mod
angle_style hybrid fourier cosine/periodic
angle_coeff 1 fourier 58.020602        0.343737        0.374972        0.281246
angle_coeff 2 fourier 83.380072        0.343737        0.374972        0.281246
angle_coeff 3 fourier 157.882480        0.343737        0.374972        0.281246
angle_coeff 4 fourier 221.735285        0.343737        0.374972        0.281246
angle_coeff 5 fourier 32.417871        0.343737        0.374972        0.281246
angle_coeff 6 fourier 114.246973        0.343737        0.374972        0.281246
angle_coeff 7 fourier 90.420412        0.343737        0.374972        0.281246
angle_coeff 8 fourier 75.498766        0.343737        0.374972        0.281246
angle_coeff 9 cosine/periodic 88.853997              -1               3

# Positive deformation

variable delta equal 0.02*16.8431396103833
variable deltaxy equal 0.02*xy
variable deltaxz equal 0.02*xz
variable deltayz equal 0.02*yz
change_box all xz delta 0.336862792207666 remap units box
Changing box ...
  triclinic box = (-0.12771686 -0.089724548 -0.11678381) to (14.87645 13.521555 16.726356) with tilt (-6.2799955 -0.68201522 -1.8867226)

# Relax atoms positions

minimize 0 1e-10 100000 100000
Generated 6 of 6 mixed pair_coeff terms from arithmetic mixing rule
For more information see https://docs.lammps.org/err0027 (src/domain.cpp:1052)
Step          Temp          E_pair         E_mol          TotEng         Press
250264   306.92185     -343.70863      279.50387      182.81168      2863.8804
Loop time of 0.0187509 on 1 procs for 30 steps with 271 atoms

Minimization stats:
  Stopping criterion = linesearch alpha is zero
  Energy initial, next-to-last, final =
  Force two-norm initial, final = 155.51773 16.439324
  Force max component initial, final = 18.525101 3.2969422
  Final line search alpha, max atom move = 2.6166832e-11 8.6270532e-11
  Iterations, force evaluations = 30 117

# Obtain new stress tensor

variable tmp equal pe
variable e1 equal -156.482015984855
variable tmp equal press
variable p1 equal 1360.89866286731
variable tmp equal pxx
variable pxx1 equal -439.308713633588
variable tmp equal pyy
variable pyy1 equal 2467.98959872192
variable tmp equal pzz
variable pzz1 equal 2054.01510351358
variable tmp equal pxy
variable pxy1 equal -147.166832477321
variable tmp equal pxz
variable pxz1 equal -3764.68648804925
variable tmp equal pyz
variable pyz1 equal 822.141136170614

# Compute elastic constant from pressure tensor

variable C1pos equal 19.273940327104
variable C2pos equal 0.554728186012549
variable C3pos equal 4.8600046170313
variable C4pos equal -2.89641666267201
variable C5pos equal 8.2360234645906
variable C6pos equal 1.26288746161845

# Combine positive and negative

variable C15 equal 0.5*(-24.5790121722182+19.273940327104)
variable C25 equal 0.5*(1.41014885684015+0.554728186012549)
variable C35 equal 0.5*(-0.504329063436451+4.8600046170313)
variable C45 equal 0.5*(-0.922657779096293+-2.89641666267201)
variable C55 equal 0.5*(22.71689700701+8.2360234645906)
variable C65 equal 0.5*(3.1542191177137+1.26288746161845)

# Delete dir to make sure it is not reused

variable dir delete

# uxy Perturbation

variable dir equal 6
include ./input/displace_333-EXP-1-vasp.mod
variable len0 equal 13.6112790951766

# Reset box and simulation parameters

clear
box tilt large

The 'box' command has been removed and will be ignored

read_restart restart_333-EXP-1-vasp.equil
Reading restart file ...
  restart file = 10 Sep 2025, LAMMPS = 10 Sep 2025
  restoring atom style full from restart
  triclinic box = (-0.12771686 -0.089724548 -0.11678381) to (14.87645 13.521555 16.726356) with tilt (-6.2799955 -1.018878 -1.8867226)
  restoring pair style lj/cut from restart
  restoring bond style harmonic from restart
  restoring angle style hybrid from restart
  restoring dihedral style harmonic from restart
  271 atoms
  291 bonds
  551 angles
  687 dihedrals
Finding 1-2 1-3 1-4 neighbors ...
     4 = max # of 1-2 neighbors
     8 = max # of 1-3 neighbors
    12 = max # of special neighbors
  read_restart CPU = 0.001 seconds
include ./input/angles_333-EXP-1-vasp.mod
angle_style hybrid fourier cosine/periodic
angle_coeff 1 fourier 58.020602        0.343737        0.374972        0.281246
angle_coeff 2 fourier 83.380072        0.343737        0.374972        0.281246
angle_coeff 3 fourier 157.882480        0.343737        0.374972        0.281246
angle_coeff 4 fourier 221.735285        0.343737        0.374972        0.281246
angle_coeff 5 fourier 32.417871        0.343737        0.374972        0.281246
angle_coeff 6 fourier 114.246973        0.343737        0.374972        0.281246
angle_coeff 7 fourier 90.420412        0.343737        0.374972        0.281246
angle_coeff 8 fourier 75.498766        0.343737        0.374972        0.281246
angle_coeff 9 cosine/periodic 88.853997              -1               3

# Negative deformation

variable delta equal -0.02*13.6112790951766
variable deltaxy equal -0.02*xy
variable deltaxz equal -0.02*xz
variable deltayz equal -0.02*yz
change_box all xy delta -0.272225581903532 remap units box
Changing box ...
  triclinic box = (-0.12771686 -0.089724548 -0.11678381) to (14.87645 13.521555 16.726356) with tilt (-6.5522211 -1.018878 -1.8867226)

# Relax atoms positions

minimize 0 1e-10 100000 100000
Generated 6 of 6 mixed pair_coeff terms from arithmetic mixing rule
For more information see https://docs.lammps.org/err0027 (src/domain.cpp:1052)
Step          Temp          E_pair         E_mol          TotEng         Press
250264   306.92185     -343.41311      276.68571      180.28905      2603.4383
Loop time of 0.0194621 on 1 procs for 32 steps with 271 atoms

Minimization stats:
  Stopping criterion = linesearch alpha is zero
  Energy initial, next-to-last, final =
  Force two-norm initial, final = 154.99343 15.613174
  Force max component initial, final = 17.089895 2.1209537
  Final line search alpha, max atom move = 4.9382841e-11 1.0473872e-10
  Iterations, force evaluations = 32 119

# Obtain new stress tensor

variable tmp equal pxx
variable pxx1 equal -515.332414493409
variable tmp equal pyy
variable pyy1 equal 1751.85074507686
variable tmp equal pzz
variable pzz1 equal 2283.48999163176
variable tmp equal pxy
variable pxy1 equal 2699.54931946129
variable tmp equal pxz
variable pxz1 equal -179.35746626843
variable tmp equal pyz
variable pyz1 equal 750.94841149285

# Compute elastic constant from pressure tensor

variable C1neg equal -19.6540588314031
variable C2neg equal -4.13542245423785
variable C3neg equal -3.7126301764404
variable C4neg equal 2.54045303928318
variable C5neg equal 9.6906216443135
variable C6neg equal 12.9706932980746

# Reset box and simulation parameters

clear
box tilt large

The 'box' command has been removed and will be ignored

read_restart restart_333-EXP-1-vasp.equil
Reading restart file ...
  restart file = 10 Sep 2025, LAMMPS = 10 Sep 2025
  restoring atom style full from restart
  triclinic box = (-0.12771686 -0.089724548 -0.11678381) to (14.87645 13.521555 16.726356) with tilt (-6.2799955 -1.018878 -1.8867226)
  restoring pair style lj/cut from restart
  restoring bond style harmonic from restart
  restoring angle style hybrid from restart
  restoring dihedral style harmonic from restart
  271 atoms
  291 bonds
  551 angles
  687 dihedrals
Finding 1-2 1-3 1-4 neighbors ...
     4 = max # of 1-2 neighbors
     8 = max # of 1-3 neighbors
    12 = max # of special neighbors
  read_restart CPU = 0.001 seconds
include ./input/angles_333-EXP-1-vasp.mod
angle_style hybrid fourier cosine/periodic
angle_coeff 1 fourier 58.020602        0.343737        0.374972        0.281246
angle_coeff 2 fourier 83.380072        0.343737        0.374972        0.281246
angle_coeff 3 fourier 157.882480        0.343737        0.374972        0.281246
angle_coeff 4 fourier 221.735285        0.343737        0.374972        0.281246
angle_coeff 5 fourier 32.417871        0.343737        0.374972        0.281246
angle_coeff 6 fourier 114.246973        0.343737        0.374972        0.281246
angle_coeff 7 fourier 90.420412        0.343737        0.374972        0.281246
angle_coeff 8 fourier 75.498766        0.343737        0.374972        0.281246
angle_coeff 9 cosine/periodic 88.853997              -1               3

# Positive deformation

variable delta equal 0.02*13.6112790951766
variable deltaxy equal 0.02*xy
variable deltaxz equal 0.02*xz
variable deltayz equal 0.02*yz
change_box all xy delta 0.272225581903532 remap units box
Changing box ...
  triclinic box = (-0.12771686 -0.089724548 -0.11678381) to (14.87645 13.521555 16.726356) with tilt (-6.00777 -1.018878 -1.8867226)

# Relax atoms positions

minimize 0 1e-10 100000 100000
Generated 6 of 6 mixed pair_coeff terms from arithmetic mixing rule
For more information see https://docs.lammps.org/err0027 (src/domain.cpp:1052)
Step          Temp          E_pair         E_mol          TotEng         Press
250264   306.92185     -342.88523      276.69689      180.82811      2997.3371
Loop time of 0.0196413 on 1 procs for 33 steps with 271 atoms

Minimization stats:
  Stopping criterion = linesearch alpha is zero
  Energy initial, next-to-last, final =
  Force two-norm initial, final = 156.55057 15.178779
  Force max component initial, final = 15.94943 2.2233193
  Final line search alpha, max atom move = 5.013159e-11 1.1145853e-10
  Iterations, force evaluations = 33 121

# Obtain new stress tensor

variable tmp equal pe
variable e1 equal -157.317939835901
variable tmp equal press
variable p1 equal 1411.17135664465
variable tmp equal pxx
variable pxx1 equal -1178.33981106083
variable tmp equal pyy
variable pyy1 equal 2915.21521512376
variable tmp equal pzz
variable pzz1 equal 2496.63866587102
variable tmp equal pxy
variable pxy1 equal -2343.24908804239
variable tmp equal pxz
variable pxz1 equal -1247.94164775033
variable tmp equal pyz
variable pyz1 equal 263.299159911541

# Compute elastic constant from pressure tensor

variable C1pos equal 22.9690958142402
variable C2pos equal -1.68139989599665
variable C3pos equal 2.6468868052441
variable C4pos equal -0.10220678137664
variable C5pos equal -4.347700736904
variable C6pos equal 12.2432987394438

# Combine positive and negative

variable C16 equal 0.5*(-19.6540588314031+22.9690958142402)
variable C26 equal 0.5*(-4.13542245423785+-1.68139989599665)
variable C36 equal 0.5*(-3.7126301764404+2.6468868052441)
variable C46 equal 0.5*(2.54045303928318+-0.10220678137664)
variable C56 equal 0.5*(9.6906216443135+-4.347700736904)
variable C66 equal 0.5*(12.9706932980746+12.2432987394438)

# Delete dir to make sure it is not reused

variable dir delete

# Output final values

variable C11all equal 41.4019729708808
variable C22all equal 33.1218255768725
variable C33all equal 38.0137953421411

variable C12all equal 0.5*(11.0621354236462+9.89602997542514)
variable C13all equal 0.5*(14.1544456469875+13.5083671884749)
variable C23all equal 0.5*(12.0029559047522+13.0781634219355)

variable C44all equal 13.3518536844682
variable C55all equal 15.4764602358003
variable C66all equal 12.6069960187592

variable C14all equal 0.5*(-1.7485844663449+-1.75898442167848)
variable C15all equal 0.5*(-2.6525359225571+-1.76017472601208)
variable C16all equal 0.5*(1.65751849141855+1.55011479979804)

variable C24all equal 0.5*(0.904676681685476+2.18826272516579)
variable C25all equal 0.5*(0.982438521426349+-0.92372388244688)
variable C26all equal 0.5*(-2.90841117511725+-4.34351506518003)

variable C34all equal 0.5*(3.07392615265403+3.77468612950261)
variable C35all equal 0.5*(2.17783777679742+1.78871840654228)
variable C36all equal 0.5*(-0.53287168559815+-1.87872470406784)

variable C45all equal 0.5*(-1.90953722088415+-1.46535789752326)
variable C46all equal 0.5*(1.21912312895327+1.11510258788033)
variable C56all equal 0.5*(2.67146045370475+2.20855328966607)

# Average moduli for cubic crystals

variable C11cubic equal (41.4019729708808+33.1218255768725+38.0137953421411)/3.0
variable C12cubic equal (10.4790826995357+13.8314064177312+12.5405596633438)/3.0
variable C44cubic equal (13.3518536844682+15.4764602358003+12.6069960187592)/3.0

variable bulkmodulus equal (37.5125312966315+2*12.2836829268702)/3.0
variable shearmodulus1 equal 13.8117699796759
variable shearmodulus2 equal (37.5125312966315-12.2836829268702)/2.0
variable poissonratio equal 1.0/(1.0+37.5125312966315/12.2836829268702)

Elastic Constant 1 1 = 41.4019729708808
Elastic Constant 2 2 = 33.1218255768725
Elastic Constant 3 3 = 38.0137953421411

Elastic Constant 1 2 = 10.4790826995357
Elastic Constant 1 3 = 13.8314064177312
Elastic Constant 2 3 = 12.5405596633438

Elastic Constant 4 4 = 13.3518536844682
Elastic Constant 5 5 = 15.4764602358003
Elastic Constant 6 6 = 12.6069960187592

Elastic Constant 1 4 = -1.75378444401169
Elastic Constant 1 5 = -2.20635532428459
Elastic Constant 1 6 = 1.60381664560829

Elastic Constant 2 4 = 1.54646970342563
Elastic Constant 2 5 = 0.0293573194897345
Elastic Constant 2 6 = -3.62596312014864

Elastic Constant 3 4 = 3.42430614107832
Elastic Constant 3 5 = 1.98327809166985
Elastic Constant 3 6 = -1.20579819483299

Elastic Constant 4 5 = -1.6874475592037
Elastic Constant 4 6 = 1.1671128584168
Elastic Constant 5 6 = 2.44000687168541

Bulk Modulus = 20.693299050124 GPa
Shear Modulus 1 = 13.8117699796759 GPa
Shear Modulus 2 = 12.6144241848807 GPa
Poisson Ratio = 0.246679052181297

variable rho equal density
density (g/cm^3) = 1.46636828225223
