units           real
atom_style      full
boundary        p p p

pair_style      lj/cut 5.000
bond_style      harmonic
angle_style     hybrid fourier cosine/periodic
dihedral_style  harmonic

pair_modify     tail yes mix arithmetic
special_bonds   lj/coul 0.0 0.0 1.0
dielectric      1.0
box tilt        large

The 'box' command has been removed and will be ignored

read_data       ./dat/data.333-BV-12-vasp
Reading data file ...
  triclinic box = (0 0 0) to (17.076078 13.980581 17.246173) with tilt (-8.040722 0.858085 -2.739521)
  reading atoms ...
  346 atoms
  scanning bonds ...
  scanning angles ...
  scanning dihedrals ...
  triclinic box = (0 0 0) to (17.076078 13.980581 17.246173) with tilt (-8.040722 0.858085 -2.739521)
  reading bonds ...
  351 bonds
  reading angles ...
  656 angles
  reading dihedrals ...
  777 dihedrals
Finding 1-2 1-3 1-4 neighbors ...
     4 = max # of 1-2 neighbors
    10 = max # of 1-3 neighbors
    14 = max # of special neighbors

#### Atom Groupings ####
group           fram     id   1:346
346 atoms in group fram
#### END Atom Groupings ####

compute am all property/atom mass
dump        atom_pos all extxyz 100 ./output/333-BV-12-vasp.lammpstrj
dump_modify atom_pos element Si C H O mass yes
thermo          1000
thermo_style    custom step temp pe ke etotal press vol density

variable up equal 2e-2
variable cfac equal 1.0e-4
variable cunits string GPa

# Define minimization parameters
variable etol equal 0.0
variable ftol equal 1.0e-10
variable maxiter equal 100000
variable maxeval equal 100000
variable dmax equal 1.0e-2

variable temp equal 300.0
variable thermal_damp index 100.0
variable pressure_damp index 500.0

fix relax all box/relax aniso 0.0 vmax 0.001
unfix relax
minimize 0 1e-10 100000 100000
Generated 6 of 6 mixed pair_coeff terms from arithmetic mixing rule
For more information see https://docs.lammps.org/err0027 (src/domain.cpp:1052)
Step          Temp          PotEng         KinEng         TotEng         Press          Volume        Density
0   0              622.73129      0              622.73129      45113.05       4117.2391      1.2536441
Loop time of 0.068601 on 1 procs for 91 steps with 346 atoms

Minimization stats:
  Stopping criterion = linesearch alpha is zero
  Energy initial, next-to-last, final =
  Force two-norm initial, final = 733.88943 23.780404
  Force max component initial, final = 101.58485 5.2707261
  Final line search alpha, max atom move = 1.9912713e-11 1.0495446e-10
  Iterations, force evaluations = 91 236

# Generating the full routine as described in the paper for UFF
fix nvt_relax   all nvt temp 300 300 100.0
run 100000      # 100 picoseconds
Generated 6 of 6 mixed pair_coeff terms from arithmetic mixing rule
For more information see https://docs.lammps.org/err0027 (src/domain.cpp:1052)
Step          Temp          PotEng         KinEng         TotEng         Press          Volume        Density
91   0             -216.89431      0             -216.89431      2521.1877      4117.2391      1.2536441
Averages over the last 51 of 102 rows, steps 51000 to 100091:
Temp PotEng KinEng TotEng Press Volume Density
299.951 -19.4174 308.463 289.046 -390.645 4117.24 1.25364
Loop time of 26.2659 on 1 procs for 100000 steps with 346 atoms

unfix           nvt_relax

fix npt_relax   all npt temp 300 300 100.0 iso 0 0 500.0
run 100000      # 100 picoseconds
Generated 6 of 6 mixed pair_coeff terms from arithmetic mixing rule
For more information see https://docs.lammps.org/err0027 (src/domain.cpp:1052)
Step          Temp          PotEng         KinEng         TotEng         Press          Volume        Density
100091   296.93304     -29.633832      305.35984      275.72601      758.51016      4117.2391      1.2536441
Averages over the last 51 of 102 rows, steps 151000 to 200091:
Temp PotEng KinEng TotEng Press Volume Density
299.579 -25.7263 308.081 282.355 212.627 4193.89 1.23103
Loop time of 24.1594 on 1 procs for 100000 steps with 346 atoms

unfix           npt_relax

# run 100000      # 100 picoseconds
# unfix           nvt_heat
#
# run 100000      # 100 picoseconds
# unfix           npt_heat
#
# run 700000      # 700 picoseconds
# unfix           cooling_npt
#
# run 100000      # 100 picoseconds
# unfix           npt_final

# density computation
variable rho equal density
fix integrate  all npt temp 300 300 100.0 iso 0 0 500.0
fix rho50k all ave/time 10 5000 50000 v_rho mode scalar ave one
run 50000
Generated 6 of 6 mixed pair_coeff terms from arithmetic mixing rule
For more information see https://docs.lammps.org/err0027 (src/domain.cpp:1052)
Step          Temp          PotEng         KinEng         TotEng         Press          Volume        Density
200091   283.1364       5.1786832      291.17166      296.35035     -52.149386      4166.2232      1.2389045
Averages over the last 26 of 52 rows, steps 226000 to 250091:
Temp PotEng KinEng TotEng Press Volume Density
301.903 -37.5345 310.471 272.936 41.6701 4192.56 1.23127
Loop time of 11.2695 on 1 procs for 50000 steps with 346 atoms

unfix integrate
unfix rho50k

# Compute initial state
fix 3 all box/relax  aniso 0.0
minimize 0 1e-10 100000 100000
Generated 6 of 6 mixed pair_coeff terms from arithmetic mixing rule
 (src/min.cpp:222)
For more information see https://docs.lammps.org/err0027 (src/domain.cpp:1052)
Step          Temp          PotEng         KinEng         TotEng         Press          Volume        Density
250091   288.23125     -17.870829      296.4111       278.54027      203.87216      4070.6604      1.2679889
Loop time of 0.0538985 on 1 procs for 150 steps with 346 atoms

Minimization stats:
  Stopping criterion = linesearch alpha is zero
  Energy initial, next-to-last, final =
  Force two-norm initial, final = 795.77468 163.49057
  Force max component initial, final = 381.1817 25.002348
  Final line search alpha, max atom move = 3.9915419e-13 9.9797921e-12
  Iterations, force evaluations = 150 279

variable tmp equal pxx
variable pxx0 equal 3900.5346593223
variable tmp equal pyy
variable pyy0 equal 3149.051234101
variable tmp equal pzz
variable pzz0 equal 3276.13866480545
variable tmp equal pyz
variable pyz0 equal -857.250801797378
variable tmp equal pxz
variable pxz0 equal 1543.17944287491
variable tmp equal pxy
variable pxy0 equal -2464.14312005672

variable tmp equal lx
variable lx0 equal 17.0977520750505
variable tmp equal ly
variable ly0 equal 13.8839649553015
variable tmp equal lz
variable lz0 equal 17.1588046538973

# These formulas define the derivatives w.r.t. strain components
# Constants uses $, variables use v_
variable d1 equal -(v_pxx1-3900.5346593223)/(v_delta/v_len0)*0.0001
variable d2 equal -(v_pyy1-3149.051234101)/(v_delta/v_len0)*0.0001
variable d3 equal -(v_pzz1-3276.13866480545)/(v_delta/v_len0)*0.0001
variable d4 equal -(v_pyz1--857.250801797378)/(v_delta/v_len0)*0.0001
variable d5 equal -(v_pxz1-1543.17944287491)/(v_delta/v_len0)*0.0001
variable d6 equal -(v_pxy1--2464.14312005672)/(v_delta/v_len0)*0.0001

# Write restart
unfix 3
write_restart restart_333-BV-12-vasp.equil
System init for write_restart ...
Generated 6 of 6 mixed pair_coeff terms from arithmetic mixing rule

# uxx Perturbation

variable dir equal 1
include ./input/displace_333-BV-12-vasp.mod
variable len0 equal 17.0977520750505

# Reset box and simulation parameters

clear
box tilt large

The 'box' command has been removed and will be ignored

read_restart restart_333-BV-12-vasp.equil
Reading restart file ...
  restart file = 10 Sep 2025, LAMMPS = 10 Sep 2025
  restoring atom style full from restart
  triclinic box = (-0.010837038 0.048308022 0.043684173) to (17.086915 13.932273 17.202489) with tilt (-7.9851547 0.85373798 -2.7256427)
  restoring pair style lj/cut from restart
  restoring bond style harmonic from restart
  restoring angle style hybrid from restart
  restoring dihedral style harmonic from restart
  346 atoms
  351 bonds
  656 angles
  777 dihedrals
Finding 1-2 1-3 1-4 neighbors ...
     4 = max # of 1-2 neighbors
    10 = max # of 1-3 neighbors
    14 = max # of special neighbors
  read_restart CPU = 0.002 seconds
include ./input/angles_333-BV-12-vasp.mod
angle_style hybrid fourier cosine/periodic
angle_coeff 1 fourier 58.020602        0.343737        0.374972        0.281246
angle_coeff 2 fourier 157.882480        0.343737        0.374972        0.281246
angle_coeff 3 fourier 32.417871        0.343737        0.374972        0.281246
angle_coeff 4 fourier 83.380072        0.343737        0.374972        0.281246
angle_coeff 5 fourier 221.735285        0.343737        0.374972        0.281246
angle_coeff 6 fourier 114.246973        0.343737        0.374972        0.281246
angle_coeff 7 fourier 90.420412        0.343737        0.374972        0.281246
angle_coeff 8 fourier 75.498766        0.343737        0.374972        0.281246
angle_coeff 9 cosine/periodic 88.853997              -1               3

# Negative deformation

variable delta equal -0.02*17.0977520750505
variable deltaxy equal -0.02*xy
variable deltaxz equal -0.02*xz
variable deltayz equal -0.02*yz
change_box all x delta 0 -0.34195504150101 xy delta 0.159703094547101 xz delta -0.0170747595903618 remap units box
Changing box ...
  triclinic box = (-0.010837038 0.048308022 0.043684173) to (16.74496 13.932273 17.202489) with tilt (-7.9851547 0.85373798 -2.7256427)
  triclinic box = (-0.010837038 0.048308022 0.043684173) to (16.74496 13.932273 17.202489) with tilt (-7.8254516 0.85373798 -2.7256427)
  triclinic box = (-0.010837038 0.048308022 0.043684173) to (16.74496 13.932273 17.202489) with tilt (-7.8254516 0.83666322 -2.7256427)

# Relax atoms positions

minimize 0 1e-10 100000 100000
Generated 6 of 6 mixed pair_coeff terms from arithmetic mixing rule
For more information see https://docs.lammps.org/err0027 (src/domain.cpp:1052)
Step          Temp          E_pair         E_mol          TotEng         Press
250241   288.23125     -414.52249      235.99531      117.88392      22554.071
Loop time of 0.0234926 on 1 procs for 40 steps with 346 atoms

Minimization stats:
  Stopping criterion = linesearch alpha is zero
  Energy initial, next-to-last, final =
  Force two-norm initial, final = 223.41807 25.095599
  Force max component initial, final = 27.356558 4.6465768
  Final line search alpha, max atom move = 1.2394937e-11 5.7594027e-11
  Iterations, force evaluations = 40 137

# Obtain new stress tensor

variable tmp equal pxx
variable pxx1 equal 5494.49322278999
variable tmp equal pyy
variable pyy1 equal 4823.86044018511
variable tmp equal pzz
variable pzz1 equal -1466.74460446038
variable tmp equal pxy
variable pxy1 equal -512.35519204428
variable tmp equal pxz
variable pxz1 equal 504.739285826573
variable tmp equal pyz
variable pyz1 equal 365.827382775108

# Compute elastic constant from pressure tensor

variable C1neg equal 7.96979281733845
variable C2neg equal 8.37404603042055
variable C3neg equal -23.7144163463291
variable C4neg equal 6.11539092286243
variable C5neg equal -5.19220078524168
variable C6neg equal 9.7589396400622

# Reset box and simulation parameters

clear
box tilt large

The 'box' command has been removed and will be ignored

read_restart restart_333-BV-12-vasp.equil
Reading restart file ...
  restart file = 10 Sep 2025, LAMMPS = 10 Sep 2025
  restoring atom style full from restart
  triclinic box = (-0.010837038 0.048308022 0.043684173) to (17.086915 13.932273 17.202489) with tilt (-7.9851547 0.85373798 -2.7256427)
  restoring pair style lj/cut from restart
  restoring bond style harmonic from restart
  restoring angle style hybrid from restart
  restoring dihedral style harmonic from restart
  346 atoms
  351 bonds
  656 angles
  777 dihedrals
Finding 1-2 1-3 1-4 neighbors ...
     4 = max # of 1-2 neighbors
    10 = max # of 1-3 neighbors
    14 = max # of special neighbors
  read_restart CPU = 0.001 seconds
include ./input/angles_333-BV-12-vasp.mod
angle_style hybrid fourier cosine/periodic
angle_coeff 1 fourier 58.020602        0.343737        0.374972        0.281246
angle_coeff 2 fourier 157.882480        0.343737        0.374972        0.281246
angle_coeff 3 fourier 32.417871        0.343737        0.374972        0.281246
angle_coeff 4 fourier 83.380072        0.343737        0.374972        0.281246
angle_coeff 5 fourier 221.735285        0.343737        0.374972        0.281246
angle_coeff 6 fourier 114.246973        0.343737        0.374972        0.281246
angle_coeff 7 fourier 90.420412        0.343737        0.374972        0.281246
angle_coeff 8 fourier 75.498766        0.343737        0.374972        0.281246
angle_coeff 9 cosine/periodic 88.853997              -1               3

# Positive deformation

variable delta equal 0.02*17.0977520750505
variable deltaxy equal 0.02*xy
variable deltaxz equal 0.02*xz
variable deltayz equal 0.02*yz
change_box all x delta 0 0.34195504150101 xy delta -0.159703094547101 xz delta 0.0170747595903618 remap units box
Changing box ...
  triclinic box = (-0.010837038 0.048308022 0.043684173) to (17.42887 13.932273 17.202489) with tilt (-7.9851547 0.85373798 -2.7256427)
  triclinic box = (-0.010837038 0.048308022 0.043684173) to (17.42887 13.932273 17.202489) with tilt (-8.1448578 0.85373798 -2.7256427)
  triclinic box = (-0.010837038 0.048308022 0.043684173) to (17.42887 13.932273 17.202489) with tilt (-8.1448578 0.87081274 -2.7256427)

# Relax atoms positions

minimize 0 1e-10 100000 100000
Generated 6 of 6 mixed pair_coeff terms from arithmetic mixing rule
For more information see https://docs.lammps.org/err0027 (src/domain.cpp:1052)
Step          Temp          E_pair         E_mol          TotEng         Press
250241   288.23125     -421.82508      244.99451      119.58052     -15108.115
Loop time of 0.0262622 on 1 procs for 47 steps with 346 atoms

Minimization stats:
  Stopping criterion = linesearch alpha is zero
  Energy initial, next-to-last, final =
  Force two-norm initial, final = 233.89136 20.3103
  Force max component initial, final = 28.427155 2.8923819
  Final line search alpha, max atom move = 2.6654181e-11 7.7094073e-11
  Iterations, force evaluations = 47 149

# Obtain new stress tensor

variable tmp equal pe
variable e1 equal -342.635846771785
variable tmp equal press
variable p1 equal -818.289182311084
variable tmp equal pxx
variable pxx1 equal -1240.73547818395
variable tmp equal pyy
variable pyy1 equal 2365.28673006037
variable tmp equal pzz
variable pzz1 equal -3579.41879880967
variable tmp equal pxy
variable pxy1 equal 72.5817386411909
variable tmp equal pxz
variable pxz1 equal 364.098731355403
variable tmp equal pyz
variable pyz1 equal 475.849945569806

# Compute elastic constant from pressure tensor

variable C1pos equal 25.7063506875312
variable C2pos equal 3.91882252020315
variable C3pos equal 34.2777873180756
variable C4pos equal -6.66550373683592
variable C5pos equal 5.89540355759753
variable C6pos equal -12.6836242934896

# Combine positive and negative

variable C11 equal 0.5*(7.96979281733845+25.7063506875312)
variable C21 equal 0.5*(8.37404603042055+3.91882252020315)
variable C31 equal 0.5*(-23.7144163463291+34.2777873180756)
variable C41 equal 0.5*(6.11539092286243+-6.66550373683592)
variable C51 equal 0.5*(-5.19220078524168+5.89540355759753)
variable C61 equal 0.5*(9.7589396400622+-12.6836242934896)

# Delete dir to make sure it is not reused

variable dir delete

# uyy Perturbation

variable dir equal 2
include ./input/displace_333-BV-12-vasp.mod
variable len0 equal 13.8839649553015

# Reset box and simulation parameters

clear
box tilt large

The 'box' command has been removed and will be ignored

read_restart restart_333-BV-12-vasp.equil
Reading restart file ...
  restart file = 10 Sep 2025, LAMMPS = 10 Sep 2025
  restoring atom style full from restart
  triclinic box = (-0.010837038 0.048308022 0.043684173) to (17.086915 13.932273 17.202489) with tilt (-7.9851547 0.85373798 -2.7256427)
  restoring pair style lj/cut from restart
  restoring bond style harmonic from restart
  restoring angle style hybrid from restart
  restoring dihedral style harmonic from restart
  346 atoms
  351 bonds
  656 angles
  777 dihedrals
Finding 1-2 1-3 1-4 neighbors ...
     4 = max # of 1-2 neighbors
    10 = max # of 1-3 neighbors
    14 = max # of special neighbors
  read_restart CPU = 0.001 seconds
include ./input/angles_333-BV-12-vasp.mod
angle_style hybrid fourier cosine/periodic
angle_coeff 1 fourier 58.020602        0.343737        0.374972        0.281246
angle_coeff 2 fourier 157.882480        0.343737        0.374972        0.281246
angle_coeff 3 fourier 32.417871        0.343737        0.374972        0.281246
angle_coeff 4 fourier 83.380072        0.343737        0.374972        0.281246
angle_coeff 5 fourier 221.735285        0.343737        0.374972        0.281246
angle_coeff 6 fourier 114.246973        0.343737        0.374972        0.281246
angle_coeff 7 fourier 90.420412        0.343737        0.374972        0.281246
angle_coeff 8 fourier 75.498766        0.343737        0.374972        0.281246
angle_coeff 9 cosine/periodic 88.853997              -1               3

# Negative deformation

variable delta equal -0.02*13.8839649553015
variable deltaxy equal -0.02*xy
variable deltaxz equal -0.02*xz
variable deltayz equal -0.02*yz
change_box all y delta 0 -0.27767929910603 yz delta 0.054512854166833 remap units box
Changing box ...
  triclinic box = (-0.010837038 0.048308022 0.043684173) to (17.086915 13.654594 17.202489) with tilt (-7.9851547 0.85373798 -2.7256427)
  triclinic box = (-0.010837038 0.048308022 0.043684173) to (17.086915 13.654594 17.202489) with tilt (-7.9851547 0.85373798 -2.6711299)

# Relax atoms positions

minimize 0 1e-10 100000 100000
Generated 6 of 6 mixed pair_coeff terms from arithmetic mixing rule
For more information see https://docs.lammps.org/err0027 (src/domain.cpp:1052)
Step          Temp          E_pair         E_mol          TotEng         Press
250241   288.23125     -417.75261      238.2905       116.94899      22251.086
Loop time of 0.0313662 on 1 procs for 58 steps with 346 atoms

Minimization stats:
  Stopping criterion = linesearch alpha is zero
  Energy initial, next-to-last, final =
  Force two-norm initial, final = 223.17099 16.255994
  Force max component initial, final = 26.599198 2.8131446
  Final line search alpha, max atom move = 4.3437708e-11 1.2219655e-10
  Iterations, force evaluations = 58 169

# Obtain new stress tensor

variable tmp equal pxx
variable pxx1 equal 3557.21620330026
variable tmp equal pyy
variable pyy1 equal 6937.12064468098
variable tmp equal pzz
variable pzz1 equal 207.656087181262
variable tmp equal pxy
variable pxy1 equal -560.738501142707
variable tmp equal pxz
variable pxz1 equal 855.112503448189
variable tmp equal pyz
variable pyz1 equal 1036.2442319558

# Compute elastic constant from pressure tensor

variable C1neg equal -1.7165922801102
variable C2neg equal 18.9403470528999
variable C3neg equal -15.3424128881209
variable C4neg equal 9.46747516876589
variable C5neg equal -3.4403346971336
variable C6neg equal 9.51702309457007

# Reset box and simulation parameters

clear
box tilt large

The 'box' command has been removed and will be ignored

read_restart restart_333-BV-12-vasp.equil
Reading restart file ...
  restart file = 10 Sep 2025, LAMMPS = 10 Sep 2025
  restoring atom style full from restart
  triclinic box = (-0.010837038 0.048308022 0.043684173) to (17.086915 13.932273 17.202489) with tilt (-7.9851547 0.85373798 -2.7256427)
  restoring pair style lj/cut from restart
  restoring bond style harmonic from restart
  restoring angle style hybrid from restart
  restoring dihedral style harmonic from restart
  346 atoms
  351 bonds
  656 angles
  777 dihedrals
Finding 1-2 1-3 1-4 neighbors ...
     4 = max # of 1-2 neighbors
    10 = max # of 1-3 neighbors
    14 = max # of special neighbors
  read_restart CPU = 0.001 seconds
include ./input/angles_333-BV-12-vasp.mod
angle_style hybrid fourier cosine/periodic
angle_coeff 1 fourier 58.020602        0.343737        0.374972        0.281246
angle_coeff 2 fourier 157.882480        0.343737        0.374972        0.281246
angle_coeff 3 fourier 32.417871        0.343737        0.374972        0.281246
angle_coeff 4 fourier 83.380072        0.343737        0.374972        0.281246
angle_coeff 5 fourier 221.735285        0.343737        0.374972        0.281246
angle_coeff 6 fourier 114.246973        0.343737        0.374972        0.281246
angle_coeff 7 fourier 90.420412        0.343737        0.374972        0.281246
angle_coeff 8 fourier 75.498766        0.343737        0.374972        0.281246
angle_coeff 9 cosine/periodic 88.853997              -1               3

# Positive deformation

variable delta equal 0.02*13.8839649553015
variable deltaxy equal 0.02*xy
variable deltaxz equal 0.02*xz
variable deltayz equal 0.02*yz
change_box all y delta 0 0.27767929910603 yz delta -0.054512854166833 remap units box
Changing box ...
  triclinic box = (-0.010837038 0.048308022 0.043684173) to (17.086915 14.209952 17.202489) with tilt (-7.9851547 0.85373798 -2.7256427)
  triclinic box = (-0.010837038 0.048308022 0.043684173) to (17.086915 14.209952 17.202489) with tilt (-7.9851547 0.85373798 -2.7801556)

# Relax atoms positions

minimize 0 1e-10 100000 100000
Generated 6 of 6 mixed pair_coeff terms from arithmetic mixing rule
For more information see https://docs.lammps.org/err0027 (src/domain.cpp:1052)
Step          Temp          E_pair         E_mol          TotEng         Press
250241   288.23125     -420.96153      242.20415      117.65372     -14900.193
Loop time of 0.0305501 on 1 procs for 60 steps with 346 atoms

Minimization stats:
  Stopping criterion = linesearch alpha is zero
  Energy initial, next-to-last, final =
  Force two-norm initial, final = 223.68712 16.211061
  Force max component initial, final = 29.742728 2.5683905
  Final line search alpha, max atom move = 2.7739723e-11 7.1246441e-11
  Iterations, force evaluations = 60 175

# Obtain new stress tensor

variable tmp equal pe
variable e1 equal -347.340813330807
variable tmp equal press
variable p1 equal -854.24202684196
variable tmp equal pxx
variable pxx1 equal 811.983790551285
variable tmp equal pyy
variable pyy1 equal -928.920363962446
variable tmp equal pzz
variable pzz1 equal -2445.78950711472
variable tmp equal pxy
variable pxy1 equal 292.106373797761
variable tmp equal pxz
variable pxz1 equal 888.16796245742
variable tmp equal pyz
variable pyz1 equal 627.80604536554

# Compute elastic constant from pressure tensor

variable C1pos equal 15.4427543438551
variable C2pos equal 20.3898579903172
variable C3pos equal 28.6096408596009
variable C4pos equal -7.42528423581459
variable C5pos equal 3.27505740208745
variable C6pos equal -13.7812474692724

# Combine positive and negative

variable C12 equal 0.5*(-1.7165922801102+15.4427543438551)
variable C22 equal 0.5*(18.9403470528999+20.3898579903172)
variable C32 equal 0.5*(-15.3424128881209+28.6096408596009)
variable C42 equal 0.5*(9.46747516876589+-7.42528423581459)
variable C52 equal 0.5*(-3.4403346971336+3.27505740208745)
variable C62 equal 0.5*(9.51702309457007+-13.7812474692724)

# Delete dir to make sure it is not reused

variable dir delete

# uzz Perturbation

variable dir equal 3
include ./input/displace_333-BV-12-vasp.mod
variable len0 equal 17.1588046538973

# Reset box and simulation parameters

clear
box tilt large

The 'box' command has been removed and will be ignored

read_restart restart_333-BV-12-vasp.equil
Reading restart file ...
  restart file = 10 Sep 2025, LAMMPS = 10 Sep 2025
  restoring atom style full from restart
  triclinic box = (-0.010837038 0.048308022 0.043684173) to (17.086915 13.932273 17.202489) with tilt (-7.9851547 0.85373798 -2.7256427)
  restoring pair style lj/cut from restart
  restoring bond style harmonic from restart
  restoring angle style hybrid from restart
  restoring dihedral style harmonic from restart
  346 atoms
  351 bonds
  656 angles
  777 dihedrals
Finding 1-2 1-3 1-4 neighbors ...
     4 = max # of 1-2 neighbors
    10 = max # of 1-3 neighbors
    14 = max # of special neighbors
  read_restart CPU = 0.001 seconds
include ./input/angles_333-BV-12-vasp.mod
angle_style hybrid fourier cosine/periodic
angle_coeff 1 fourier 58.020602        0.343737        0.374972        0.281246
angle_coeff 2 fourier 157.882480        0.343737        0.374972        0.281246
angle_coeff 3 fourier 32.417871        0.343737        0.374972        0.281246
angle_coeff 4 fourier 83.380072        0.343737        0.374972        0.281246
angle_coeff 5 fourier 221.735285        0.343737        0.374972        0.281246
angle_coeff 6 fourier 114.246973        0.343737        0.374972        0.281246
angle_coeff 7 fourier 90.420412        0.343737        0.374972        0.281246
angle_coeff 8 fourier 75.498766        0.343737        0.374972        0.281246
angle_coeff 9 cosine/periodic 88.853997              -1               3

# Negative deformation

variable delta equal -0.02*17.1588046538973
variable deltaxy equal -0.02*xy
variable deltaxz equal -0.02*xz
variable deltayz equal -0.02*yz
change_box all z delta 0 -0.343176093077946 remap units box
Changing box ...
  triclinic box = (-0.010837038 0.048308022 0.043684173) to (17.086915 13.932273 16.859313) with tilt (-7.9851547 0.85373798 -2.7256427)

# Relax atoms positions

minimize 0 1e-10 100000 100000
Generated 6 of 6 mixed pair_coeff terms from arithmetic mixing rule
For more information see https://docs.lammps.org/err0027 (src/domain.cpp:1052)
Step          Temp          E_pair         E_mol          TotEng         Press
250241   288.23125     -417.8122       239.7167       118.3156       22929.707
Loop time of 0.0278813 on 1 procs for 45 steps with 346 atoms

Minimization stats:
  Stopping criterion = linesearch alpha is zero
  Energy initial, next-to-last, final =
  Force two-norm initial, final = 226.56009 20.602793
  Force max component initial, final = 22.789512 3.0809071
  Final line search alpha, max atom move = 2.764297e-11 8.5165423e-11
  Iterations, force evaluations = 45 145

# Obtain new stress tensor

variable tmp equal pxx
variable pxx1 equal 3201.04062795944
variable tmp equal pyy
variable pyy1 equal 4512.04851596239
variable tmp equal pzz
variable pzz1 equal 1769.34022553716
variable tmp equal pxy
variable pxy1 equal 23.7990645486398
variable tmp equal pxz
variable pxz1 equal 744.117771007956
variable tmp equal pyz
variable pyz1 equal 848.796777937504

# Compute elastic constant from pressure tensor

variable C1neg equal -3.4974701568143
variable C2neg equal 6.81498640930695
variable C3neg equal -7.53399219634145
variable C4neg equal 8.53023789867441
variable C5neg equal -3.99530835933477
variable C6neg equal 12.4397109230268

# Reset box and simulation parameters

clear
box tilt large

The 'box' command has been removed and will be ignored

read_restart restart_333-BV-12-vasp.equil
Reading restart file ...
  restart file = 10 Sep 2025, LAMMPS = 10 Sep 2025
  restoring atom style full from restart
  triclinic box = (-0.010837038 0.048308022 0.043684173) to (17.086915 13.932273 17.202489) with tilt (-7.9851547 0.85373798 -2.7256427)
  restoring pair style lj/cut from restart
  restoring bond style harmonic from restart
  restoring angle style hybrid from restart
  restoring dihedral style harmonic from restart
  346 atoms
  351 bonds
  656 angles
  777 dihedrals
Finding 1-2 1-3 1-4 neighbors ...
     4 = max # of 1-2 neighbors
    10 = max # of 1-3 neighbors
    14 = max # of special neighbors
  read_restart CPU = 0.001 seconds
include ./input/angles_333-BV-12-vasp.mod
angle_style hybrid fourier cosine/periodic
angle_coeff 1 fourier 58.020602        0.343737        0.374972        0.281246
angle_coeff 2 fourier 157.882480        0.343737        0.374972        0.281246
angle_coeff 3 fourier 32.417871        0.343737        0.374972        0.281246
angle_coeff 4 fourier 83.380072        0.343737        0.374972        0.281246
angle_coeff 5 fourier 221.735285        0.343737        0.374972        0.281246
angle_coeff 6 fourier 114.246973        0.343737        0.374972        0.281246
angle_coeff 7 fourier 90.420412        0.343737        0.374972        0.281246
angle_coeff 8 fourier 75.498766        0.343737        0.374972        0.281246
angle_coeff 9 cosine/periodic 88.853997              -1               3

# Positive deformation

variable delta equal 0.02*17.1588046538973
variable deltaxy equal 0.02*xy
variable deltaxz equal 0.02*xz
variable deltayz equal 0.02*yz
change_box all z delta 0 0.343176093077946 remap units box
Changing box ...
  triclinic box = (-0.010837038 0.048308022 0.043684173) to (17.086915 13.932273 17.545665) with tilt (-7.9851547 0.85373798 -2.7256427)

# Relax atoms positions

minimize 0 1e-10 100000 100000
Generated 6 of 6 mixed pair_coeff terms from arithmetic mixing rule
For more information see https://docs.lammps.org/err0027 (src/domain.cpp:1052)
Step          Temp          E_pair         E_mol          TotEng         Press
250241   288.23125     -420.25981      243.1479       119.29919     -15563.96
Loop time of 0.034663 on 1 procs for 47 steps with 346 atoms

Minimization stats:
  Stopping criterion = linesearch alpha is zero
  Energy initial, next-to-last, final =
  Force two-norm initial, final = 230.36345 21.672105
  Force max component initial, final = 31.657753 4.9279973
  Final line search alpha, max atom move = 2.5495556e-11 1.2564203e-10
  Iterations, force evaluations = 47 149

# Obtain new stress tensor

variable tmp equal pe
variable e1 equal -338.040151039177
variable tmp equal press
variable p1 equal -572.282230987976
variable tmp equal pxx
variable pxx1 equal 1063.0863436616
variable tmp equal pyy
variable pyy1 equal 2728.28418236328
variable tmp equal pzz
variable pzz1 equal -5508.21721898881
variable tmp equal pxy
variable pxy1 equal -48.9132009590577
variable tmp equal pxz
variable pxz1 equal 444.087399505742
variable tmp equal pyz
variable pyz1 equal 599.984677467913

# Compute elastic constant from pressure tensor

variable C1pos equal 14.1872415783035
variable C2pos equal 2.1038352586886
variable C3pos equal 43.9217794189713
variable C4pos equal -7.28617739632645
variable C5pos equal 5.49546021684584
variable C6pos equal -12.0761495954883

# Combine positive and negative

variable C13 equal 0.5*(-3.4974701568143+14.1872415783035)
variable C23 equal 0.5*(6.81498640930695+2.1038352586886)
variable C33 equal 0.5*(-7.53399219634145+43.9217794189713)
variable C43 equal 0.5*(8.53023789867441+-7.28617739632645)
variable C53 equal 0.5*(-3.99530835933477+5.49546021684584)
variable C63 equal 0.5*(12.4397109230268+-12.0761495954883)

# Delete dir to make sure it is not reused

variable dir delete

# uyz Perturbation

variable dir equal 4
include ./input/displace_333-BV-12-vasp.mod
variable len0 equal 17.1588046538973

# Reset box and simulation parameters

clear
box tilt large

The 'box' command has been removed and will be ignored

read_restart restart_333-BV-12-vasp.equil
Reading restart file ...
  restart file = 10 Sep 2025, LAMMPS = 10 Sep 2025
  restoring atom style full from restart
  triclinic box = (-0.010837038 0.048308022 0.043684173) to (17.086915 13.932273 17.202489) with tilt (-7.9851547 0.85373798 -2.7256427)
  restoring pair style lj/cut from restart
  restoring bond style harmonic from restart
  restoring angle style hybrid from restart
  restoring dihedral style harmonic from restart
  346 atoms
  351 bonds
  656 angles
  777 dihedrals
Finding 1-2 1-3 1-4 neighbors ...
     4 = max # of 1-2 neighbors
    10 = max # of 1-3 neighbors
    14 = max # of special neighbors
  read_restart CPU = 0.001 seconds
include ./input/angles_333-BV-12-vasp.mod
angle_style hybrid fourier cosine/periodic
angle_coeff 1 fourier 58.020602        0.343737        0.374972        0.281246
angle_coeff 2 fourier 157.882480        0.343737        0.374972        0.281246
angle_coeff 3 fourier 32.417871        0.343737        0.374972        0.281246
angle_coeff 4 fourier 83.380072        0.343737        0.374972        0.281246
angle_coeff 5 fourier 221.735285        0.343737        0.374972        0.281246
angle_coeff 6 fourier 114.246973        0.343737        0.374972        0.281246
angle_coeff 7 fourier 90.420412        0.343737        0.374972        0.281246
angle_coeff 8 fourier 75.498766        0.343737        0.374972        0.281246
angle_coeff 9 cosine/periodic 88.853997              -1               3

# Negative deformation

variable delta equal -0.02*17.1588046538973
variable deltaxy equal -0.02*xy
variable deltaxz equal -0.02*xz
variable deltayz equal -0.02*yz
change_box all yz delta -0.343176093077946 remap units box
Changing box ...
  triclinic box = (-0.010837038 0.048308022 0.043684173) to (17.086915 13.932273 17.202489) with tilt (-7.9851547 0.85373798 -3.0688188)

# Relax atoms positions

minimize 0 1e-10 100000 100000
Generated 6 of 6 mixed pair_coeff terms from arithmetic mixing rule
For more information see https://docs.lammps.org/err0027 (src/domain.cpp:1052)
Step          Temp          E_pair         E_mol          TotEng         Press
250241   288.23125     -419.86255      226.80786      103.3564       3337.8048
Loop time of 0.0284523 on 1 procs for 36 steps with 346 atoms

Minimization stats:
  Stopping criterion = linesearch alpha is zero
  Energy initial, next-to-last, final =
  Force two-norm initial, final = 200.61611 24.612552
  Force max component initial, final = 26.661565 3.3624228
  Final line search alpha, max atom move = 1.2862435e-11 4.3248944e-11
  Iterations, force evaluations = 36 129

# Obtain new stress tensor

variable tmp equal pxx
variable pxx1 equal 1384.36418712145
variable tmp equal pyy
variable pyy1 equal 3064.95857614447
variable tmp equal pzz
variable pzz1 equal -2393.60655573399
variable tmp equal pxy
variable pxy1 equal -197.19499052291
variable tmp equal pxz
variable pxz1 equal 355.881020885419
variable tmp equal pyz
variable pyz1 equal 1360.18303238801

# Compute elastic constant from pressure tensor

variable C1neg equal -12.5808523610043
variable C2neg equal -0.420463289782649
variable C3neg equal -28.3487261026972
variable C4neg equal 11.0871691709269
variable C5neg equal -5.93649210994746
variable C6neg equal 11.3347406476691

# Reset box and simulation parameters

clear
box tilt large

The 'box' command has been removed and will be ignored

read_restart restart_333-BV-12-vasp.equil
Reading restart file ...
  restart file = 10 Sep 2025, LAMMPS = 10 Sep 2025
  restoring atom style full from restart
  triclinic box = (-0.010837038 0.048308022 0.043684173) to (17.086915 13.932273 17.202489) with tilt (-7.9851547 0.85373798 -2.7256427)
  restoring pair style lj/cut from restart
  restoring bond style harmonic from restart
  restoring angle style hybrid from restart
  restoring dihedral style harmonic from restart
  346 atoms
  351 bonds
  656 angles
  777 dihedrals
Finding 1-2 1-3 1-4 neighbors ...
     4 = max # of 1-2 neighbors
    10 = max # of 1-3 neighbors
    14 = max # of special neighbors
  read_restart CPU = 0.001 seconds
include ./input/angles_333-BV-12-vasp.mod
angle_style hybrid fourier cosine/periodic
angle_coeff 1 fourier 58.020602        0.343737        0.374972        0.281246
angle_coeff 2 fourier 157.882480        0.343737        0.374972        0.281246
angle_coeff 3 fourier 32.417871        0.343737        0.374972        0.281246
angle_coeff 4 fourier 83.380072        0.343737        0.374972        0.281246
angle_coeff 5 fourier 221.735285        0.343737        0.374972        0.281246
angle_coeff 6 fourier 114.246973        0.343737        0.374972        0.281246
angle_coeff 7 fourier 90.420412        0.343737        0.374972        0.281246
angle_coeff 8 fourier 75.498766        0.343737        0.374972        0.281246
angle_coeff 9 cosine/periodic 88.853997              -1               3

# Positive deformation

variable delta equal 0.02*17.1588046538973
variable deltaxy equal 0.02*xy
variable deltaxz equal 0.02*xz
variable deltayz equal 0.02*yz
change_box all yz delta 0.343176093077946 remap units box
Changing box ...
  triclinic box = (-0.010837038 0.048308022 0.043684173) to (17.086915 13.932273 17.202489) with tilt (-7.9851547 0.85373798 -2.3824666)

# Relax atoms positions

minimize 0 1e-10 100000 100000
Generated 6 of 6 mixed pair_coeff terms from arithmetic mixing rule
For more information see https://docs.lammps.org/err0027 (src/domain.cpp:1052)
Step          Temp          E_pair         E_mol          TotEng         Press
250241   288.23125     -420.13745      229.6717       105.94535      3186.4403
Loop time of 0.0462372 on 1 procs for 72 steps with 346 atoms

Minimization stats:
  Stopping criterion = linesearch alpha is zero
  Energy initial, next-to-last, final =
  Force two-norm initial, final = 203.46288 11.664072
  Force max component initial, final = 23.363108 1.8323035
  Final line search alpha, max atom move = 7.648089e-11 1.401362e-10
  Iterations, force evaluations = 72 197

# Obtain new stress tensor

variable tmp equal pe
variable e1 equal -352.757693280889
variable tmp equal press
variable p1 equal 1285.75305744783
variable tmp equal pxx
variable pxx1 equal 2558.1743703845
variable tmp equal pyy
variable pyy1 equal 2315.04694025623
variable tmp equal pzz
variable pzz1 equal -1015.96213829725
variable tmp equal pxy
variable pxy1 equal -252.735904146844
variable tmp equal pxz
variable pxz1 equal 1044.94025670912
variable tmp equal pyz
variable pyz1 equal 50.8192315863638

# Compute elastic constant from pressure tensor

variable C1pos equal 6.711801444689
variable C2pos equal 4.17002146922385
variable C3pos equal 21.4605040155135
variable C4pos equal -4.54035016691871
variable C5pos equal 2.49119593082895
variable C6pos equal -11.0570360795494

# Combine positive and negative

variable C14 equal 0.5*(-12.5808523610043+6.711801444689)
variable C24 equal 0.5*(-0.420463289782649+4.17002146922385)
variable C34 equal 0.5*(-28.3487261026972+21.4605040155135)
variable C44 equal 0.5*(11.0871691709269+-4.54035016691871)
variable C54 equal 0.5*(-5.93649210994746+2.49119593082895)
variable C64 equal 0.5*(11.3347406476691+-11.0570360795494)

# Delete dir to make sure it is not reused

variable dir delete

# uxz Perturbation

variable dir equal 5
include ./input/displace_333-BV-12-vasp.mod
variable len0 equal 17.1588046538973

# Reset box and simulation parameters

clear
box tilt large

The 'box' command has been removed and will be ignored

read_restart restart_333-BV-12-vasp.equil
Reading restart file ...
  restart file = 10 Sep 2025, LAMMPS = 10 Sep 2025
  restoring atom style full from restart
  triclinic box = (-0.010837038 0.048308022 0.043684173) to (17.086915 13.932273 17.202489) with tilt (-7.9851547 0.85373798 -2.7256427)
  restoring pair style lj/cut from restart
  restoring bond style harmonic from restart
  restoring angle style hybrid from restart
  restoring dihedral style harmonic from restart
  346 atoms
  351 bonds
  656 angles
  777 dihedrals
Finding 1-2 1-3 1-4 neighbors ...
     4 = max # of 1-2 neighbors
    10 = max # of 1-3 neighbors
    14 = max # of special neighbors
  read_restart CPU = 0.001 seconds
include ./input/angles_333-BV-12-vasp.mod
angle_style hybrid fourier cosine/periodic
angle_coeff 1 fourier 58.020602        0.343737        0.374972        0.281246
angle_coeff 2 fourier 157.882480        0.343737        0.374972        0.281246
angle_coeff 3 fourier 32.417871        0.343737        0.374972        0.281246
angle_coeff 4 fourier 83.380072        0.343737        0.374972        0.281246
angle_coeff 5 fourier 221.735285        0.343737        0.374972        0.281246
angle_coeff 6 fourier 114.246973        0.343737        0.374972        0.281246
angle_coeff 7 fourier 90.420412        0.343737        0.374972        0.281246
angle_coeff 8 fourier 75.498766        0.343737        0.374972        0.281246
angle_coeff 9 cosine/periodic 88.853997              -1               3

# Negative deformation

variable delta equal -0.02*17.1588046538973
variable deltaxy equal -0.02*xy
variable deltaxz equal -0.02*xz
variable deltayz equal -0.02*yz
change_box all xz delta -0.343176093077946 remap units box
Changing box ...
  triclinic box = (-0.010837038 0.048308022 0.043684173) to (17.086915 13.932273 17.202489) with tilt (-7.9851547 0.51056189 -2.7256427)

# Relax atoms positions

minimize 0 1e-10 100000 100000
Generated 6 of 6 mixed pair_coeff terms from arithmetic mixing rule
For more information see https://docs.lammps.org/err0027 (src/domain.cpp:1052)
Step          Temp          E_pair         E_mol          TotEng         Press
250241   288.23125     -418.90121      228.5996       106.1095       3307.1439
Loop time of 0.0293894 on 1 procs for 39 steps with 346 atoms

Minimization stats:
  Stopping criterion = linesearch alpha is zero
  Energy initial, next-to-last, final =
  Force two-norm initial, final = 199.87552 24.027621
  Force max component initial, final = 22.12374 6.0554054
  Final line search alpha, max atom move = 1.2569753e-11 7.6114952e-11
  Iterations, force evaluations = 39 135

# Obtain new stress tensor

variable tmp equal pxx
variable pxx1 equal 1634.17419193453
variable tmp equal pyy
variable pyy1 equal 3483.58816602692
variable tmp equal pzz
variable pzz1 equal -2338.54774652424
variable tmp equal pxy
variable pxy1 equal 82.0959478414838
variable tmp equal pxz
variable pxz1 equal 1529.64234175117
variable tmp equal pyz
variable pyz1 equal 180.249428700738

# Compute elastic constant from pressure tensor

variable C1neg equal -11.3318023369388
variable C2neg equal 1.6726846596296
variable C3neg equal -28.0734320566485
variable C4neg equal 5.18750115249058
variable C5neg equal -0.0676855056186992
variable C6neg equal 12.731195339491

# Reset box and simulation parameters

clear
box tilt large

The 'box' command has been removed and will be ignored

read_restart restart_333-BV-12-vasp.equil
Reading restart file ...
  restart file = 10 Sep 2025, LAMMPS = 10 Sep 2025
  restoring atom style full from restart
  triclinic box = (-0.010837038 0.048308022 0.043684173) to (17.086915 13.932273 17.202489) with tilt (-7.9851547 0.85373798 -2.7256427)
  restoring pair style lj/cut from restart
  restoring bond style harmonic from restart
  restoring angle style hybrid from restart
  restoring dihedral style harmonic from restart
  346 atoms
  351 bonds
  656 angles
  777 dihedrals
Finding 1-2 1-3 1-4 neighbors ...
     4 = max # of 1-2 neighbors
    10 = max # of 1-3 neighbors
    14 = max # of special neighbors
  read_restart CPU = 0.001 seconds
include ./input/angles_333-BV-12-vasp.mod
angle_style hybrid fourier cosine/periodic
angle_coeff 1 fourier 58.020602        0.343737        0.374972        0.281246
angle_coeff 2 fourier 157.882480        0.343737        0.374972        0.281246
angle_coeff 3 fourier 32.417871        0.343737        0.374972        0.281246
angle_coeff 4 fourier 83.380072        0.343737        0.374972        0.281246
angle_coeff 5 fourier 221.735285        0.343737        0.374972        0.281246
angle_coeff 6 fourier 114.246973        0.343737        0.374972        0.281246
angle_coeff 7 fourier 90.420412        0.343737        0.374972        0.281246
angle_coeff 8 fourier 75.498766        0.343737        0.374972        0.281246
angle_coeff 9 cosine/periodic 88.853997              -1               3

# Positive deformation

variable delta equal 0.02*17.1588046538973
variable deltaxy equal 0.02*xy
variable deltaxz equal 0.02*xz
variable deltayz equal 0.02*yz
change_box all xz delta 0.343176093077946 remap units box
Changing box ...
  triclinic box = (-0.010837038 0.048308022 0.043684173) to (17.086915 13.932273 17.202489) with tilt (-7.9851547 1.1969141 -2.7256427)

# Relax atoms positions

minimize 0 1e-10 100000 100000
Generated 6 of 6 mixed pair_coeff terms from arithmetic mixing rule
For more information see https://docs.lammps.org/err0027 (src/domain.cpp:1052)
Step          Temp          E_pair         E_mol          TotEng         Press
250241   288.23125     -420.70335      227.35892      103.06666      3236.274
Loop time of 0.0404247 on 1 procs for 51 steps with 346 atoms

Minimization stats:
  Stopping criterion = linesearch alpha is zero
  Energy initial, next-to-last, final =
  Force two-norm initial, final = 200.57644 19.263761
  Force max component initial, final = 27.996241 4.3843779
  Final line search alpha, max atom move = 2.5368541e-11 1.1122527e-10
  Iterations, force evaluations = 51 159

# Obtain new stress tensor

variable tmp equal pe
variable e1 equal -347.796218779555
variable tmp equal press
variable p1 equal 1010.82722661026
variable tmp equal pxx
variable pxx1 equal 2211.46609374378
variable tmp equal pyy
variable pyy1 equal 3313.83932307479
variable tmp equal pzz
variable pzz1 equal -2492.82373698781
variable tmp equal pxy
variable pxy1 equal -262.018383833389
variable tmp equal pxz
variable pxz1 equal -417.330178802511
variable tmp equal pyz
variable pyz1 equal 606.943393508186

# Compute elastic constant from pressure tensor

variable C1pos equal 8.4453428278926
variable C2pos equal -0.823940444868951
variable C3pos equal 28.8448120089663
variable C4pos equal -7.32097097652782
variable C5pos equal 9.80254810838711
variable C6pos equal -11.0106236811167

# Combine positive and negative

variable C15 equal 0.5*(-11.3318023369388+8.4453428278926)
variable C25 equal 0.5*(1.6726846596296+-0.823940444868951)
variable C35 equal 0.5*(-28.0734320566485+28.8448120089663)
variable C45 equal 0.5*(5.18750115249058+-7.32097097652782)
variable C55 equal 0.5*(-0.0676855056186992+9.80254810838711)
variable C65 equal 0.5*(12.731195339491+-11.0106236811167)

# Delete dir to make sure it is not reused

variable dir delete

# uxy Perturbation

variable dir equal 6
include ./input/displace_333-BV-12-vasp.mod
variable len0 equal 13.8839649553015

# Reset box and simulation parameters

clear
box tilt large

The 'box' command has been removed and will be ignored

read_restart restart_333-BV-12-vasp.equil
Reading restart file ...
  restart file = 10 Sep 2025, LAMMPS = 10 Sep 2025
  restoring atom style full from restart
  triclinic box = (-0.010837038 0.048308022 0.043684173) to (17.086915 13.932273 17.202489) with tilt (-7.9851547 0.85373798 -2.7256427)
  restoring pair style lj/cut from restart
  restoring bond style harmonic from restart
  restoring angle style hybrid from restart
  restoring dihedral style harmonic from restart
  346 atoms
  351 bonds
  656 angles
  777 dihedrals
Finding 1-2 1-3 1-4 neighbors ...
     4 = max # of 1-2 neighbors
    10 = max # of 1-3 neighbors
    14 = max # of special neighbors
  read_restart CPU = 0.001 seconds
include ./input/angles_333-BV-12-vasp.mod
angle_style hybrid fourier cosine/periodic
angle_coeff 1 fourier 58.020602        0.343737        0.374972        0.281246
angle_coeff 2 fourier 157.882480        0.343737        0.374972        0.281246
angle_coeff 3 fourier 32.417871        0.343737        0.374972        0.281246
angle_coeff 4 fourier 83.380072        0.343737        0.374972        0.281246
angle_coeff 5 fourier 221.735285        0.343737        0.374972        0.281246
angle_coeff 6 fourier 114.246973        0.343737        0.374972        0.281246
angle_coeff 7 fourier 90.420412        0.343737        0.374972        0.281246
angle_coeff 8 fourier 75.498766        0.343737        0.374972        0.281246
angle_coeff 9 cosine/periodic 88.853997              -1               3

# Negative deformation

variable delta equal -0.02*13.8839649553015
variable deltaxy equal -0.02*xy
variable deltaxz equal -0.02*xz
variable deltayz equal -0.02*yz
change_box all xy delta -0.27767929910603 remap units box
Changing box ...
  triclinic box = (-0.010837038 0.048308022 0.043684173) to (17.086915 13.932273 17.202489) with tilt (-8.262834 0.85373798 -2.7256427)

# Relax atoms positions

minimize 0 1e-10 100000 100000
Generated 6 of 6 mixed pair_coeff terms from arithmetic mixing rule
For more information see https://docs.lammps.org/err0027 (src/domain.cpp:1052)
Step          Temp          E_pair         E_mol          TotEng         Press
250241   288.23125     -420.00295      225.35454      101.76269      3205.6409
Loop time of 0.025714 on 1 procs for 41 steps with 346 atoms

Minimization stats:
  Stopping criterion = linesearch alpha is zero
  Energy initial, next-to-last, final =
  Force two-norm initial, final = 200.00303 22.586442
  Force max component initial, final = 26.890962 3.3508666
  Final line search alpha, max atom move = 1.3834472e-11 4.6357471e-11
  Iterations, force evaluations = 41 139

# Obtain new stress tensor

variable tmp equal pxx
variable pxx1 equal 1144.88718277798
variable tmp equal pyy
variable pyy1 equal 2793.58495584306
variable tmp equal pzz
variable pzz1 equal -2599.82366140107
variable tmp equal pxy
variable pxy1 equal 1173.81816114261
variable tmp equal pxz
variable pxz1 equal 1031.44342275239
variable tmp equal pyz
variable pyz1 equal 398.458118521171

# Compute elastic constant from pressure tensor

variable C1neg equal -13.7782373827216
variable C2neg equal -1.7773313912897
variable C3neg equal -29.3798116310326
variable C4neg equal 6.27854460159274
variable C5neg equal -2.5586801006126
variable C6neg equal 18.1898064059967

# Reset box and simulation parameters

clear
box tilt large

The 'box' command has been removed and will be ignored

read_restart restart_333-BV-12-vasp.equil
Reading restart file ...
  restart file = 10 Sep 2025, LAMMPS = 10 Sep 2025
  restoring atom style full from restart
  triclinic box = (-0.010837038 0.048308022 0.043684173) to (17.086915 13.932273 17.202489) with tilt (-7.9851547 0.85373798 -2.7256427)
  restoring pair style lj/cut from restart
  restoring bond style harmonic from restart
  restoring angle style hybrid from restart
  restoring dihedral style harmonic from restart
  346 atoms
  351 bonds
  656 angles
  777 dihedrals
Finding 1-2 1-3 1-4 neighbors ...
     4 = max # of 1-2 neighbors
    10 = max # of 1-3 neighbors
    14 = max # of special neighbors
  read_restart CPU = 0.001 seconds
include ./input/angles_333-BV-12-vasp.mod
angle_style hybrid fourier cosine/periodic
angle_coeff 1 fourier 58.020602        0.343737        0.374972        0.281246
angle_coeff 2 fourier 157.882480        0.343737        0.374972        0.281246
angle_coeff 3 fourier 32.417871        0.343737        0.374972        0.281246
angle_coeff 4 fourier 83.380072        0.343737        0.374972        0.281246
angle_coeff 5 fourier 221.735285        0.343737        0.374972        0.281246
angle_coeff 6 fourier 114.246973        0.343737        0.374972        0.281246
angle_coeff 7 fourier 90.420412        0.343737        0.374972        0.281246
angle_coeff 8 fourier 75.498766        0.343737        0.374972        0.281246
angle_coeff 9 cosine/periodic 88.853997              -1               3

# Positive deformation

variable delta equal 0.02*13.8839649553015
variable deltaxy equal 0.02*xy
variable deltaxz equal 0.02*xz
variable deltayz equal 0.02*yz
change_box all xy delta 0.27767929910603 remap units box
Changing box ...
  triclinic box = (-0.010837038 0.048308022 0.043684173) to (17.086915 13.932273 17.202489) with tilt (-7.7074754 0.85373798 -2.7256427)

# Relax atoms positions

minimize 0 1e-10 100000 100000
Generated 6 of 6 mixed pair_coeff terms from arithmetic mixing rule
For more information see https://docs.lammps.org/err0027 (src/domain.cpp:1052)
Step          Temp          E_pair         E_mol          TotEng         Press
250241   288.23125     -420.1411       230.97729      107.24729      3325.9527
Loop time of 0.0302488 on 1 procs for 46 steps with 346 atoms

Minimization stats:
  Stopping criterion = linesearch alpha is zero
  Energy initial, next-to-last, final =
  Force two-norm initial, final = 203.61267 21.541477
  Force max component initial, final = 23.256266 4.5826578
  Final line search alpha, max atom move = 2.3793881e-11 1.0903922e-10
  Iterations, force evaluations = 46 147

# Obtain new stress tensor

variable tmp equal pe
variable e1 equal -345.406469422034
variable tmp equal press
variable p1 equal 1044.98051461846
variable tmp equal pxx
variable pxx1 equal 2130.94123697612
variable tmp equal pyy
variable pyy1 equal 3989.54824356342
variable tmp equal pzz
variable pzz1 equal -2985.54793668418
variable tmp equal pxy
variable pxy1 equal -1393.44783150431
variable tmp equal pxz
variable pxz1 equal 135.348272870576
variable tmp equal pyz
variable pyz1 equal 503.536998018384

# Compute elastic constant from pressure tensor

variable C1pos equal 8.8479671117309
variable C2pos equal -4.2024850473121
variable C3pos equal 31.3084330074482
variable C4pos equal -6.80393899907881
variable C5pos equal 7.03915585002167
variable C6pos equal -5.35347644276205

# Combine positive and negative

variable C16 equal 0.5*(-13.7782373827216+8.8479671117309)
variable C26 equal 0.5*(-1.7773313912897+-4.2024850473121)
variable C36 equal 0.5*(-29.3798116310326+31.3084330074482)
variable C46 equal 0.5*(6.27854460159274+-6.80393899907881)
variable C56 equal 0.5*(-2.5586801006126+7.03915585002167)
variable C66 equal 0.5*(18.1898064059967+-5.35347644276205)

# Delete dir to make sure it is not reused

variable dir delete

# Output final values

variable C11all equal 16.8380717524348
variable C22all equal 19.6651025216085
variable C33all equal 18.1938936113149

variable C12all equal 0.5*(6.86308103187245+6.14643427531185)
variable C13all equal 0.5*(5.3448857107446+5.28168548587325)
variable C23all equal 0.5*(4.45941083399777+6.63361398574)

variable C44all equal 3.2734095020041
variable C55all equal 4.86743130138421
variable C66all equal 6.41816498161732

variable C14all equal 0.5*(-2.93452545815765+-0.275056406986745)
variable C15all equal 0.5*(-1.4432297545231+0.351601386177925)
variable C16all equal 0.5*(-2.46513513549535+-1.4623423267137)

variable C24all equal 0.5*(1.8747790897206+1.02109546647565)
variable C25all equal 0.5*(0.424372107380324+-0.0826386475230751)
variable C26all equal 0.5*(-2.9899082193009+-2.13211218735117)

variable C34all equal 0.5*(-3.44411104359185+0.622030251173979)
variable C35all equal 0.5*(0.385689976158901+0.750075928755535)
variable C36all equal 0.5*(0.964310688207801+0.18178066376925)

variable C45all equal 0.5*(-1.06673491201862+-1.72264808955926)
variable C46all equal 0.5*(-0.262697198743035+0.13885228405985)
variable C56all equal 0.5*(2.24023787470454+0.86028582918715)

# Average moduli for cubic crystals

variable C11cubic equal (16.8380717524348+19.6651025216085+18.1938936113149)/3.0
variable C12cubic equal (6.50475765359215+5.31328559830892+5.54651240986889)/3.0
variable C44cubic equal (3.2734095020041+4.86743130138421+6.41816498161732)/3.0

variable bulkmodulus equal (18.2323559617861+2*5.78818522058999)/3.0
variable shearmodulus1 equal 4.85300192833521
variable shearmodulus2 equal (18.2323559617861-5.78818522058999)/2.0
variable poissonratio equal 1.0/(1.0+18.2323559617861/5.78818522058999)

Elastic Constant 1 1 = 16.8380717524348
Elastic Constant 2 2 = 19.6651025216085
Elastic Constant 3 3 = 18.1938936113149

Elastic Constant 1 2 = 6.50475765359215
Elastic Constant 1 3 = 5.31328559830892
Elastic Constant 2 3 = 5.54651240986889

Elastic Constant 4 4 = 3.2734095020041
Elastic Constant 5 5 = 4.86743130138421
Elastic Constant 6 6 = 6.41816498161732

Elastic Constant 1 4 = -1.6047909325722
Elastic Constant 1 5 = -0.545814184172588
Elastic Constant 1 6 = -1.96373873110453

Elastic Constant 2 4 = 1.44793727809813
Elastic Constant 2 5 = 0.170866729928624
Elastic Constant 2 6 = -2.56101020332603

Elastic Constant 3 4 = -1.41104039620894
Elastic Constant 3 5 = 0.567882952457218
Elastic Constant 3 6 = 0.573045675988526

Elastic Constant 4 5 = -1.39469150078894
Elastic Constant 4 6 = -0.0619224573415925
Elastic Constant 5 6 = 1.55026185194584

Bulk Modulus = 9.93624213432203 GPa
Shear Modulus 1 = 4.85300192833521 GPa
Shear Modulus 2 = 6.22208537059806 GPa
Poisson Ratio = 0.2409681437501

variable rho equal density
density (g/cm^3) = 1.2671872335978
