units           real
atom_style      full
boundary        p p p

pair_style      lj/cut 5.000
bond_style      harmonic
angle_style     hybrid fourier cosine/periodic
dihedral_style  harmonic

dielectric      1.0
pair_modify     tail yes mix arithmetic
special_bonds   lj/coul 0.0 0.0 1.0
box tilt        large

The 'box' command has been removed and will be ignored

read_data       ./dat/data.333-RV-31-vasp
Reading data file ...
  triclinic box = (0 0 0) to (15.411447 12.402704 17.503439) with tilt (-7.202679 -1.826073 0.338403)
  reading atoms ...
  310 atoms
  scanning bonds ...
  scanning angles ...
  scanning dihedrals ...
  triclinic box = (0 0 0) to (15.411447 12.402704 17.503439) with tilt (-7.202679 -1.826073 0.338403)
  reading bonds ...
  315 bonds
  reading angles ...
  584 angles
  reading dihedrals ...
  669 dihedrals
Finding 1-2 1-3 1-4 neighbors ...
     4 = max # of 1-2 neighbors
    10 = max # of 1-3 neighbors
    14 = max # of special neighbors

#### Atom Groupings ####
group           1        id   21 33 86:87 152:160 182:184 233:235 243 281
21 atoms in group 1
group           fram     id   1:20 22:32 34:85 88:151 161:181 185:232 236:242 244:280 282:310
289 atoms in group fram
#### END Atom Groupings ####

compute am all property/atom mass
dump        atom_pos all extxyz 100 ./output/333-RV-31-vasp.lammpstrj
dump_modify atom_pos element Si H C O Si H C O mass yes
thermo          1000
thermo_style    custom step temp pe ke etotal press vol density

variable up equal 2e-2
variable cfac equal 1.0e-4
variable cunits string GPa

# Define minimization parameters
variable etol equal 0.0
variable ftol equal 1.0e-10
variable maxiter equal 100000
variable maxeval equal 100000
variable dmax equal 1.0e-2

variable temp equal 300.0
variable thermal_damp index 100.0
variable pressure_damp index 500.0

fix relax all box/relax aniso 0.0 vmax 0.001
unfix relax
minimize 0 1e-10 100000 100000
Generated 28 of 28 mixed pair_coeff terms from arithmetic mixing rule
For more information see https://docs.lammps.org/err0027 (src/domain.cpp:1052)
Step          Temp          PotEng         KinEng         TotEng         Press          Volume        Density
0   0              592.25807      0              592.25807      59104.108      3345.6706      1.4592149
Loop time of 0.0375248 on 1 procs for 62 steps with 310 atoms

Minimization stats:
  Stopping criterion = linesearch alpha is zero
  Energy initial, next-to-last, final =
  Force two-norm initial, final = 712.02758 19.718734
  Force max component initial, final = 97.958374 4.6626369
  Final line search alpha, max atom move = 1.9481091e-11 9.0833256e-11
  Iterations, force evaluations = 62 175

# Generating the full routine as described in the paper for UFF
fix nvt_relax   all nvt temp 300 300 100.0
run 100000      # 100 picoseconds
Generated 28 of 28 mixed pair_coeff terms from arithmetic mixing rule
For more information see https://docs.lammps.org/err0027 (src/domain.cpp:1052)
Step          Temp          PotEng         KinEng         TotEng         Press          Volume        Density
62   0             -202.66987      0             -202.66987      13292.444      3345.6706      1.4592149
Averages over the last 51 of 102 rows, steps 51000 to 100062:
Temp PotEng KinEng TotEng Press Volume Density
302.048 10.2181 278.207 288.425 20276.3 3345.67 1.45921
Loop time of 20.855 on 1 procs for 100000 steps with 310 atoms

unfix           nvt_relax

fix npt_relax   all npt temp 300 300 100.0 iso 0 0 500.0
run 100000      # 100 picoseconds
Generated 28 of 28 mixed pair_coeff terms from arithmetic mixing rule
For more information see https://docs.lammps.org/err0027 (src/domain.cpp:1052)
Step          Temp          PotEng         KinEng         TotEng         Press          Volume        Density
100062   307.55704     -5.1443052      283.28165      278.13735      17580.373      3345.6706      1.4592149
Averages over the last 51 of 102 rows, steps 151000 to 200062:
Temp PotEng KinEng TotEng Press Volume Density
297.522 -20.8547 274.039 253.184 324.781 3941.11 1.239
Loop time of 21.0141 on 1 procs for 100000 steps with 310 atoms

unfix           npt_relax

# run 100000      # 100 picoseconds
# unfix           nvt_heat
#
# run 100000      # 100 picoseconds
# unfix           npt_heat
#
# run 700000      # 700 picoseconds
# unfix           cooling_npt
#
# run 100000      # 100 picoseconds
# unfix           npt_final

# density computation
variable rho equal density
fix integrate  all npt temp 300 300 100.0 iso 0 0 500.0
fix rho50k all ave/time 10 5000 50000 v_rho mode scalar ave one
run 50000
Generated 28 of 28 mixed pair_coeff terms from arithmetic mixing rule
For more information see https://docs.lammps.org/err0027 (src/domain.cpp:1052)
Step          Temp          PotEng         KinEng         TotEng         Press          Volume        Density
200062   318.54399     -38.534867      293.40141      254.86655      594.32583      3934.315       1.24089
Averages over the last 26 of 52 rows, steps 226000 to 250062:
Temp PotEng KinEng TotEng Press Volume Density
296.943 -40.483 273.505 233.022 1029.11 3906.72 1.24982
Loop time of 10.6219 on 1 procs for 50000 steps with 310 atoms

unfix integrate
unfix rho50k

# Compute initial state
fix 3 all box/relax  aniso 0.0
minimize 0 1e-10 100000 100000
Generated 28 of 28 mixed pair_coeff terms from arithmetic mixing rule
 (src/min.cpp:222)
For more information see https://docs.lammps.org/err0027 (src/domain.cpp:1052)
Step          Temp          PotEng         KinEng         TotEng         Press          Volume        Density
250062   300.36833     -39.911295      276.66035      236.74906     -683.42863      3955.5046      1.2342426
Loop time of 0.0694907 on 1 procs for 215 steps with 310 atoms

Minimization stats:
  Stopping criterion = linesearch alpha is zero
  Energy initial, next-to-last, final =
  Force two-norm initial, final = 715.58602 108.24878
  Force max component initial, final = 376.95789 16.233552
  Final line search alpha, max atom move = 1.0597449e-12 1.7203425e-11
  Iterations, force evaluations = 215 341

variable tmp equal pxx
variable pxx0 equal 3224.49024519602
variable tmp equal pyy
variable pyy0 equal 3218.07771957507
variable tmp equal pzz
variable pzz0 equal 3458.21712082297
variable tmp equal pyz
variable pyz0 equal -3267.64467696642
variable tmp equal pxz
variable pxz0 equal 1085.19536252955
variable tmp equal pxy
variable pxy0 equal -552.024696064613

variable tmp equal lx
variable lx0 equal 16.2625068148798
variable tmp equal ly
variable ly0 equal 13.106631915133
variable tmp equal lz
variable lz0 equal 18.5048994768807

# These formulas define the derivatives w.r.t. strain components
# Constants uses $, variables use v_
variable d1 equal -(v_pxx1-3224.49024519602)/(v_delta/v_len0)*0.0001
variable d2 equal -(v_pyy1-3218.07771957507)/(v_delta/v_len0)*0.0001
variable d3 equal -(v_pzz1-3458.21712082297)/(v_delta/v_len0)*0.0001
variable d4 equal -(v_pyz1--3267.64467696642)/(v_delta/v_len0)*0.0001
variable d5 equal -(v_pxz1-1085.19536252955)/(v_delta/v_len0)*0.0001
variable d6 equal -(v_pxy1--552.024696064613)/(v_delta/v_len0)*0.0001

# Write restart
unfix 3
write_restart restart_333-RV-31-vasp.equil
System init for write_restart ...
Generated 28 of 28 mixed pair_coeff terms from arithmetic mixing rule

# uxx Perturbation

variable dir equal 1
include ./input/displace_333-RV-31-vasp.mod
variable len0 equal 16.2625068148798

# Reset box and simulation parameters

clear
box tilt large

The 'box' command has been removed and will be ignored

read_restart restart_333-RV-31-vasp.equil
Reading restart file ...
  restart file = 10 Sep 2025, LAMMPS = 10 Sep 2025
  restoring atom style full from restart
  triclinic box = (-0.42552991 -0.35196396 -0.50073024) to (15.836977 12.754668 18.004169) with tilt (-7.6114743 -1.9305519 0.35776475)
  restoring pair style lj/cut from restart
  restoring bond style harmonic from restart
  restoring angle style hybrid from restart
  restoring dihedral style harmonic from restart
  310 atoms
  315 bonds
  584 angles
  669 dihedrals
Finding 1-2 1-3 1-4 neighbors ...
     4 = max # of 1-2 neighbors
    10 = max # of 1-3 neighbors
    14 = max # of special neighbors
  read_restart CPU = 0.002 seconds
include ./input/angles_333-RV-31-vasp.mod
angle_style hybrid fourier cosine/periodic
angle_coeff 1 fourier 58.020602        0.343737        0.374972        0.281246
angle_coeff 2 fourier 83.380072        0.343737        0.374972        0.281246
angle_coeff 3 fourier 157.882480        0.343737        0.374972        0.281246
angle_coeff 4 fourier 221.735285        0.343737        0.374972        0.281246
angle_coeff 5 fourier 32.417871        0.343737        0.374972        0.281246
angle_coeff 6 fourier 114.246973        0.343737        0.374972        0.281246
angle_coeff 7 fourier 90.420412        0.343737        0.374972        0.281246
angle_coeff 8 fourier 75.498766        0.343737        0.374972        0.281246
angle_coeff 9 cosine/periodic 88.853997              -1               3

# Negative deformation

variable delta equal -0.02*16.2625068148798
variable deltaxy equal -0.02*xy
variable deltaxz equal -0.02*xz
variable deltayz equal -0.02*yz
change_box all x delta 0 -0.325250136297596 xy delta 0.152229485531321 xz delta 0.0386110378679816 remap units box
Changing box ...
  triclinic box = (-0.42552991 -0.35196396 -0.50073024) to (15.511727 12.754668 18.004169) with tilt (-7.6114743 -1.9305519 0.35776475)
  triclinic box = (-0.42552991 -0.35196396 -0.50073024) to (15.511727 12.754668 18.004169) with tilt (-7.4592448 -1.9305519 0.35776475)
  triclinic box = (-0.42552991 -0.35196396 -0.50073024) to (15.511727 12.754668 18.004169) with tilt (-7.4592448 -1.8919409 0.35776475)

# Relax atoms positions

minimize 0 1e-10 100000 100000
Generated 28 of 28 mixed pair_coeff terms from arithmetic mixing rule
For more information see https://docs.lammps.org/err0027 (src/domain.cpp:1052)
Step          Temp          E_pair         E_mol          TotEng         Press
250277   300.36833     -377.93828      180.15521      78.877279      20670.74
Loop time of 0.0359344 on 1 procs for 68 steps with 310 atoms

Minimization stats:
  Stopping criterion = linesearch alpha is zero
  Energy initial, next-to-last, final =
  Force two-norm initial, final = 189.33108 13.530115
  Force max component initial, final = 22.75512 1.8365473
  Final line search alpha, max atom move = 6.0619909e-11 1.1133133e-10
  Iterations, force evaluations = 68 189

# Obtain new stress tensor

variable tmp equal pxx
variable pxx1 equal -527.543598122812
variable tmp equal pyy
variable pyy1 equal 1277.9580148814
variable tmp equal pzz
variable pzz1 equal 1202.66227229574
variable tmp equal pxy
variable pxy1 equal -408.178784873187
variable tmp equal pxz
variable pxz1 equal 1165.8208012803
variable tmp equal pyz
variable pyz1 equal -862.034797871179

# Compute elastic constant from pressure tensor

variable C1neg equal -18.7601692165942
variable C2neg equal -9.70059852346835
variable C3neg equal -11.2777742426361
variable C4neg equal 12.0280493954762
variable C5neg equal 0.40312719375375
variable C6neg equal 0.71922955595713

# Reset box and simulation parameters

clear
box tilt large

The 'box' command has been removed and will be ignored

read_restart restart_333-RV-31-vasp.equil
Reading restart file ...
  restart file = 10 Sep 2025, LAMMPS = 10 Sep 2025
  restoring atom style full from restart
  triclinic box = (-0.42552991 -0.35196396 -0.50073024) to (15.836977 12.754668 18.004169) with tilt (-7.6114743 -1.9305519 0.35776475)
  restoring pair style lj/cut from restart
  restoring bond style harmonic from restart
  restoring angle style hybrid from restart
  restoring dihedral style harmonic from restart
  310 atoms
  315 bonds
  584 angles
  669 dihedrals
Finding 1-2 1-3 1-4 neighbors ...
     4 = max # of 1-2 neighbors
    10 = max # of 1-3 neighbors
    14 = max # of special neighbors
  read_restart CPU = 0.002 seconds
include ./input/angles_333-RV-31-vasp.mod
angle_style hybrid fourier cosine/periodic
angle_coeff 1 fourier 58.020602        0.343737        0.374972        0.281246
angle_coeff 2 fourier 83.380072        0.343737        0.374972        0.281246
angle_coeff 3 fourier 157.882480        0.343737        0.374972        0.281246
angle_coeff 4 fourier 221.735285        0.343737        0.374972        0.281246
angle_coeff 5 fourier 32.417871        0.343737        0.374972        0.281246
angle_coeff 6 fourier 114.246973        0.343737        0.374972        0.281246
angle_coeff 7 fourier 90.420412        0.343737        0.374972        0.281246
angle_coeff 8 fourier 75.498766        0.343737        0.374972        0.281246
angle_coeff 9 cosine/periodic 88.853997              -1               3

# Positive deformation

variable delta equal 0.02*16.2625068148798
variable deltaxy equal 0.02*xy
variable deltaxz equal 0.02*xz
variable deltayz equal 0.02*yz
change_box all x delta 0 0.325250136297596 xy delta -0.152229485531321 xz delta -0.0386110378679816 remap units box
Changing box ...
  triclinic box = (-0.42552991 -0.35196396 -0.50073024) to (16.162227 12.754668 18.004169) with tilt (-7.6114743 -1.9305519 0.35776475)
  triclinic box = (-0.42552991 -0.35196396 -0.50073024) to (16.162227 12.754668 18.004169) with tilt (-7.7637038 -1.9305519 0.35776475)
  triclinic box = (-0.42552991 -0.35196396 -0.50073024) to (16.162227 12.754668 18.004169) with tilt (-7.7637038 -1.9691629 0.35776475)

# Relax atoms positions

minimize 0 1e-10 100000 100000
Generated 28 of 28 mixed pair_coeff terms from arithmetic mixing rule
For more information see https://docs.lammps.org/err0027 (src/domain.cpp:1052)
Step          Temp          E_pair         E_mol          TotEng         Press
250277   300.36833     -377.9579       180.301        79.003453     -13659.664
Loop time of 0.024317 on 1 procs for 43 steps with 310 atoms

Minimization stats:
  Stopping criterion = linesearch alpha is zero
  Energy initial, next-to-last, final =
  Force two-norm initial, final = 188.32594 18.865806
  Force max component initial, final = 24.184395 3.1457387
  Final line search alpha, max atom move = 2.7497729e-11 8.6500669e-11
  Iterations, force evaluations = 43 141

# Obtain new stress tensor

variable tmp equal pe
variable e1 equal -302.360590987781
variable tmp equal press
variable p1 equal -1487.65451856158
variable tmp equal pxx
variable pxx1 equal -2941.4839006806
variable tmp equal pyy
variable pyy1 equal -425.361499317865
variable tmp equal pzz
variable pzz1 equal -1096.11815568629
variable tmp equal pxy
variable pxy1 equal 409.351182781998
variable tmp equal pxz
variable pxz1 equal 1109.44791158164
variable tmp equal pyz
variable pyz1 equal -1337.68349240167

# Compute elastic constant from pressure tensor

variable C1pos equal 30.8298707293831
variable C2pos equal 18.2171960944647
variable C3pos equal 22.7716763825463
variable C4pos equal -9.64980592282375
variable C5pos equal -0.12126274526045
variable C6pos equal -4.80687939423305

# Combine positive and negative

variable C11 equal 0.5*(-18.7601692165942+30.8298707293831)
variable C21 equal 0.5*(-9.70059852346835+18.2171960944647)
variable C31 equal 0.5*(-11.2777742426361+22.7716763825463)
variable C41 equal 0.5*(12.0280493954762+-9.64980592282375)
variable C51 equal 0.5*(0.40312719375375+-0.12126274526045)
variable C61 equal 0.5*(0.71922955595713+-4.80687939423305)

# Delete dir to make sure it is not reused

variable dir delete

# uyy Perturbation

variable dir equal 2
include ./input/displace_333-RV-31-vasp.mod
variable len0 equal 13.106631915133

# Reset box and simulation parameters

clear
box tilt large

The 'box' command has been removed and will be ignored

read_restart restart_333-RV-31-vasp.equil
Reading restart file ...
  restart file = 10 Sep 2025, LAMMPS = 10 Sep 2025
  restoring atom style full from restart
  triclinic box = (-0.42552991 -0.35196396 -0.50073024) to (15.836977 12.754668 18.004169) with tilt (-7.6114743 -1.9305519 0.35776475)
  restoring pair style lj/cut from restart
  restoring bond style harmonic from restart
  restoring angle style hybrid from restart
  restoring dihedral style harmonic from restart
  310 atoms
  315 bonds
  584 angles
  669 dihedrals
Finding 1-2 1-3 1-4 neighbors ...
     4 = max # of 1-2 neighbors
    10 = max # of 1-3 neighbors
    14 = max # of special neighbors
  read_restart CPU = 0.001 seconds
include ./input/angles_333-RV-31-vasp.mod
angle_style hybrid fourier cosine/periodic
angle_coeff 1 fourier 58.020602        0.343737        0.374972        0.281246
angle_coeff 2 fourier 83.380072        0.343737        0.374972        0.281246
angle_coeff 3 fourier 157.882480        0.343737        0.374972        0.281246
angle_coeff 4 fourier 221.735285        0.343737        0.374972        0.281246
angle_coeff 5 fourier 32.417871        0.343737        0.374972        0.281246
angle_coeff 6 fourier 114.246973        0.343737        0.374972        0.281246
angle_coeff 7 fourier 90.420412        0.343737        0.374972        0.281246
angle_coeff 8 fourier 75.498766        0.343737        0.374972        0.281246
angle_coeff 9 cosine/periodic 88.853997              -1               3

# Negative deformation

variable delta equal -0.02*13.106631915133
variable deltaxy equal -0.02*xy
variable deltaxz equal -0.02*xz
variable deltayz equal -0.02*yz
change_box all y delta 0 -0.26213263830266 yz delta -0.00715529502250953 remap units box
Changing box ...
  triclinic box = (-0.42552991 -0.35196396 -0.50073024) to (15.836977 12.492535 18.004169) with tilt (-7.6114743 -1.9305519 0.35776475)
  triclinic box = (-0.42552991 -0.35196396 -0.50073024) to (15.836977 12.492535 18.004169) with tilt (-7.6114743 -1.9305519 0.35060946)

# Relax atoms positions

minimize 0 1e-10 100000 100000
Generated 28 of 28 mixed pair_coeff terms from arithmetic mixing rule
For more information see https://docs.lammps.org/err0027 (src/domain.cpp:1052)
Step          Temp          E_pair         E_mol          TotEng         Press
250277   300.36833     -375.38297      178.4635       79.740886      21527.294
Loop time of 0.0201868 on 1 procs for 29 steps with 310 atoms

Minimization stats:
  Stopping criterion = linesearch alpha is zero
  Energy initial, next-to-last, final =
  Force two-norm initial, final = 182.11612 26.223958
  Force max component initial, final = 24.136003 4.7445696
  Final line search alpha, max atom move = 1.4571686e-11 6.913638e-11
  Iterations, force evaluations = 29 115

# Obtain new stress tensor

variable tmp equal pxx
variable pxx1 equal -57.8716187547269
variable tmp equal pyy
variable pyy1 equal 5032.05561625661
variable tmp equal pzz
variable pzz1 equal 814.713351716433
variable tmp equal pxy
variable pxy1 equal -380.874822508776
variable tmp equal pxz
variable pxz1 equal 848.961377078556
variable tmp equal pyz
variable pyz1 equal -1192.85020545525

# Compute elastic constant from pressure tensor

variable C1neg equal -16.4118093197537
variable C2neg equal 9.0698894834077
variable C3neg equal -13.2175188455327
variable C4neg equal 10.3739723575559
variable C5neg equal -1.18116992725497
variable C6neg equal 0.855749367779185

# Reset box and simulation parameters

clear
box tilt large

The 'box' command has been removed and will be ignored

read_restart restart_333-RV-31-vasp.equil
Reading restart file ...
  restart file = 10 Sep 2025, LAMMPS = 10 Sep 2025
  restoring atom style full from restart
  triclinic box = (-0.42552991 -0.35196396 -0.50073024) to (15.836977 12.754668 18.004169) with tilt (-7.6114743 -1.9305519 0.35776475)
  restoring pair style lj/cut from restart
  restoring bond style harmonic from restart
  restoring angle style hybrid from restart
  restoring dihedral style harmonic from restart
  310 atoms
  315 bonds
  584 angles
  669 dihedrals
Finding 1-2 1-3 1-4 neighbors ...
     4 = max # of 1-2 neighbors
    10 = max # of 1-3 neighbors
    14 = max # of special neighbors
  read_restart CPU = 0.001 seconds
include ./input/angles_333-RV-31-vasp.mod
angle_style hybrid fourier cosine/periodic
angle_coeff 1 fourier 58.020602        0.343737        0.374972        0.281246
angle_coeff 2 fourier 83.380072        0.343737        0.374972        0.281246
angle_coeff 3 fourier 157.882480        0.343737        0.374972        0.281246
angle_coeff 4 fourier 221.735285        0.343737        0.374972        0.281246
angle_coeff 5 fourier 32.417871        0.343737        0.374972        0.281246
angle_coeff 6 fourier 114.246973        0.343737        0.374972        0.281246
angle_coeff 7 fourier 90.420412        0.343737        0.374972        0.281246
angle_coeff 8 fourier 75.498766        0.343737        0.374972        0.281246
angle_coeff 9 cosine/periodic 88.853997              -1               3

# Positive deformation

variable delta equal 0.02*13.106631915133
variable deltaxy equal 0.02*xy
variable deltaxz equal 0.02*xz
variable deltayz equal 0.02*yz
change_box all y delta 0 0.26213263830266 yz delta 0.00715529502250953 remap units box
Changing box ...
  triclinic box = (-0.42552991 -0.35196396 -0.50073024) to (15.836977 13.016801 18.004169) with tilt (-7.6114743 -1.9305519 0.35776475)
  triclinic box = (-0.42552991 -0.35196396 -0.50073024) to (15.836977 13.016801 18.004169) with tilt (-7.6114743 -1.9305519 0.36492005)

# Relax atoms positions

minimize 0 1e-10 100000 100000
Generated 28 of 28 mixed pair_coeff terms from arithmetic mixing rule
For more information see https://docs.lammps.org/err0027 (src/domain.cpp:1052)
Step          Temp          E_pair         E_mol          TotEng         Press
250277   300.36833     -379.98566      183.00366      79.678357     -14456.785
Loop time of 0.0222077 on 1 procs for 37 steps with 310 atoms

Minimization stats:
  Stopping criterion = linesearch alpha is zero
  Energy initial, next-to-last, final =
  Force two-norm initial, final = 185.16264 18.943156
  Force max component initial, final = 24.628879 3.3318031
  Final line search alpha, max atom move = 2.0258816e-11 6.7498385e-11
  Iterations, force evaluations = 37 131

# Obtain new stress tensor

variable tmp equal pe
variable e1 equal -301.209661764925
variable tmp equal press
variable p1 equal -2398.37268178315
variable tmp equal pxx
variable pxx1 equal -2683.03206263848
variable tmp equal pyy
variable pyy1 equal -3215.10675814107
variable tmp equal pzz
variable pzz1 equal -1296.97922456992
variable tmp equal pxy
variable pxy1 equal 555.253181740294
variable tmp equal pxz
variable pxz1 equal 1465.79067922331
variable tmp equal pyz
variable pyz1 equal -1086.89934212391

# Compute elastic constant from pressure tensor

variable C1pos equal 29.5376115391725
variable C2pos equal 32.1659223885807
variable C3pos equal 23.7759817269645
variable C4pos equal -10.9037266742126
variable C5pos equal -1.9029765834688
variable C6pos equal -5.53638938902454

# Combine positive and negative

variable C12 equal 0.5*(-16.4118093197537+29.5376115391725)
variable C22 equal 0.5*(9.0698894834077+32.1659223885807)
variable C32 equal 0.5*(-13.2175188455327+23.7759817269645)
variable C42 equal 0.5*(10.3739723575559+-10.9037266742126)
variable C52 equal 0.5*(-1.18116992725497+-1.9029765834688)
variable C62 equal 0.5*(0.855749367779185+-5.53638938902454)

# Delete dir to make sure it is not reused

variable dir delete

# uzz Perturbation

variable dir equal 3
include ./input/displace_333-RV-31-vasp.mod
variable len0 equal 18.5048994768807

# Reset box and simulation parameters

clear
box tilt large

The 'box' command has been removed and will be ignored

read_restart restart_333-RV-31-vasp.equil
Reading restart file ...
  restart file = 10 Sep 2025, LAMMPS = 10 Sep 2025
  restoring atom style full from restart
  triclinic box = (-0.42552991 -0.35196396 -0.50073024) to (15.836977 12.754668 18.004169) with tilt (-7.6114743 -1.9305519 0.35776475)
  restoring pair style lj/cut from restart
  restoring bond style harmonic from restart
  restoring angle style hybrid from restart
  restoring dihedral style harmonic from restart
  310 atoms
  315 bonds
  584 angles
  669 dihedrals
Finding 1-2 1-3 1-4 neighbors ...
     4 = max # of 1-2 neighbors
    10 = max # of 1-3 neighbors
    14 = max # of special neighbors
  read_restart CPU = 0.001 seconds
include ./input/angles_333-RV-31-vasp.mod
angle_style hybrid fourier cosine/periodic
angle_coeff 1 fourier 58.020602        0.343737        0.374972        0.281246
angle_coeff 2 fourier 83.380072        0.343737        0.374972        0.281246
angle_coeff 3 fourier 157.882480        0.343737        0.374972        0.281246
angle_coeff 4 fourier 221.735285        0.343737        0.374972        0.281246
angle_coeff 5 fourier 32.417871        0.343737        0.374972        0.281246
angle_coeff 6 fourier 114.246973        0.343737        0.374972        0.281246
angle_coeff 7 fourier 90.420412        0.343737        0.374972        0.281246
angle_coeff 8 fourier 75.498766        0.343737        0.374972        0.281246
angle_coeff 9 cosine/periodic 88.853997              -1               3

# Negative deformation

variable delta equal -0.02*18.5048994768807
variable deltaxy equal -0.02*xy
variable deltaxz equal -0.02*xz
variable deltayz equal -0.02*yz
change_box all z delta 0 -0.370097989537614 remap units box
Changing box ...
  triclinic box = (-0.42552991 -0.35196396 -0.50073024) to (15.836977 12.754668 17.634071) with tilt (-7.6114743 -1.9305519 0.35776475)

# Relax atoms positions

minimize 0 1e-10 100000 100000
Generated 28 of 28 mixed pair_coeff terms from arithmetic mixing rule
For more information see https://docs.lammps.org/err0027 (src/domain.cpp:1052)
Step          Temp          E_pair         E_mol          TotEng         Press
250277   300.36833     -377.79959      180.64837      79.509131      21345.267
Loop time of 0.0234092 on 1 procs for 37 steps with 310 atoms

Minimization stats:
  Stopping criterion = linesearch alpha is zero
  Energy initial, next-to-last, final =
  Force two-norm initial, final = 199.04823 20.567186
  Force max component initial, final = 23.513684 3.6207207
  Final line search alpha, max atom move = 1.7708008e-11 6.4115752e-11
  Iterations, force evaluations = 37 131

# Obtain new stress tensor

variable tmp equal pxx
variable pxx1 equal -310.949245681783
variable tmp equal pyy
variable pyy1 equal 1727.92164187981
variable tmp equal pzz
variable pzz1 equal 2693.27339585131
variable tmp equal pxy
variable pxy1 equal 211.37422144697
variable tmp equal pxz
variable pxz1 equal 1117.00753317014
variable tmp equal pyz
variable pyz1 equal -1358.61222592946

# Compute elastic constant from pressure tensor

variable C1neg equal -17.677197454389
variable C2neg equal -7.4507803884763
variable C3neg equal -3.8247186248583
variable C4neg equal 9.5451622551848
variable C5neg equal 0.15906085320295
variable C6neg equal 3.81699458755791

# Reset box and simulation parameters

clear
box tilt large

The 'box' command has been removed and will be ignored

read_restart restart_333-RV-31-vasp.equil
Reading restart file ...
  restart file = 10 Sep 2025, LAMMPS = 10 Sep 2025
  restoring atom style full from restart
  triclinic box = (-0.42552991 -0.35196396 -0.50073024) to (15.836977 12.754668 18.004169) with tilt (-7.6114743 -1.9305519 0.35776475)
  restoring pair style lj/cut from restart
  restoring bond style harmonic from restart
  restoring angle style hybrid from restart
  restoring dihedral style harmonic from restart
  310 atoms
  315 bonds
  584 angles
  669 dihedrals
Finding 1-2 1-3 1-4 neighbors ...
     4 = max # of 1-2 neighbors
    10 = max # of 1-3 neighbors
    14 = max # of special neighbors
  read_restart CPU = 0.001 seconds
include ./input/angles_333-RV-31-vasp.mod
angle_style hybrid fourier cosine/periodic
angle_coeff 1 fourier 58.020602        0.343737        0.374972        0.281246
angle_coeff 2 fourier 83.380072        0.343737        0.374972        0.281246
angle_coeff 3 fourier 157.882480        0.343737        0.374972        0.281246
angle_coeff 4 fourier 221.735285        0.343737        0.374972        0.281246
angle_coeff 5 fourier 32.417871        0.343737        0.374972        0.281246
angle_coeff 6 fourier 114.246973        0.343737        0.374972        0.281246
angle_coeff 7 fourier 90.420412        0.343737        0.374972        0.281246
angle_coeff 8 fourier 75.498766        0.343737        0.374972        0.281246
angle_coeff 9 cosine/periodic 88.853997              -1               3

# Positive deformation

variable delta equal 0.02*18.5048994768807
variable deltaxy equal 0.02*xy
variable deltaxz equal 0.02*xz
variable deltayz equal 0.02*yz
change_box all z delta 0 0.370097989537614 remap units box
Changing box ...
  triclinic box = (-0.42552991 -0.35196396 -0.50073024) to (15.836977 12.754668 18.374267) with tilt (-7.6114743 -1.9305519 0.35776475)

# Relax atoms positions

minimize 0 1e-10 100000 100000
Generated 28 of 28 mixed pair_coeff terms from arithmetic mixing rule
For more information see https://docs.lammps.org/err0027 (src/domain.cpp:1052)
Step          Temp          E_pair         E_mol          TotEng         Press
250277   300.36833     -378.62309      182.25815      80.295414     -14344.344
Loop time of 0.0285199 on 1 procs for 50 steps with 310 atoms

Minimization stats:
  Stopping criterion = linesearch alpha is zero
  Energy initial, next-to-last, final =
  Force two-norm initial, final = 193.34845 16.579918
  Force max component initial, final = 25.401481 3.028352
  Final line search alpha, max atom move = 3.2681281e-11 9.8970423e-11
  Iterations, force evaluations = 50 155

# Obtain new stress tensor

variable tmp equal pe
variable e1 equal -305.300734085413
variable tmp equal press
variable p1 equal -1798.6232332522
variable tmp equal pxx
variable pxx1 equal -2522.82871493304
variable tmp equal pyy
variable pyy1 equal -701.226957676404
variable tmp equal pzz
variable pzz1 equal -2171.81402714716
variable tmp equal pxy
variable pxy1 equal -49.116716843137
variable tmp equal pxz
variable pxz1 equal 883.674060301031
variable tmp equal pyz
variable pyz1 equal -1596.36578512771

# Compute elastic constant from pressure tensor

variable C1pos equal 28.7365948006453
variable C2pos equal 19.5965233862574
variable C3pos equal 28.1501557398506
variable C4pos equal -8.35639445919355
variable C5pos equal 1.0076065111426
variable C6pos equal -2.51453989610738

# Combine positive and negative

variable C13 equal 0.5*(-17.677197454389+28.7365948006453)
variable C23 equal 0.5*(-7.4507803884763+19.5965233862574)
variable C33 equal 0.5*(-3.8247186248583+28.1501557398506)
variable C43 equal 0.5*(9.5451622551848+-8.35639445919355)
variable C53 equal 0.5*(0.15906085320295+1.0076065111426)
variable C63 equal 0.5*(3.81699458755791+-2.51453989610738)

# Delete dir to make sure it is not reused

variable dir delete

# uyz Perturbation

variable dir equal 4
include ./input/displace_333-RV-31-vasp.mod
variable len0 equal 18.5048994768807

# Reset box and simulation parameters

clear
box tilt large

The 'box' command has been removed and will be ignored

read_restart restart_333-RV-31-vasp.equil
Reading restart file ...
  restart file = 10 Sep 2025, LAMMPS = 10 Sep 2025
  restoring atom style full from restart
  triclinic box = (-0.42552991 -0.35196396 -0.50073024) to (15.836977 12.754668 18.004169) with tilt (-7.6114743 -1.9305519 0.35776475)
  restoring pair style lj/cut from restart
  restoring bond style harmonic from restart
  restoring angle style hybrid from restart
  restoring dihedral style harmonic from restart
  310 atoms
  315 bonds
  584 angles
  669 dihedrals
Finding 1-2 1-3 1-4 neighbors ...
     4 = max # of 1-2 neighbors
    10 = max # of 1-3 neighbors
    14 = max # of special neighbors
  read_restart CPU = 0.002 seconds
include ./input/angles_333-RV-31-vasp.mod
angle_style hybrid fourier cosine/periodic
angle_coeff 1 fourier 58.020602        0.343737        0.374972        0.281246
angle_coeff 2 fourier 83.380072        0.343737        0.374972        0.281246
angle_coeff 3 fourier 157.882480        0.343737        0.374972        0.281246
angle_coeff 4 fourier 221.735285        0.343737        0.374972        0.281246
angle_coeff 5 fourier 32.417871        0.343737        0.374972        0.281246
angle_coeff 6 fourier 114.246973        0.343737        0.374972        0.281246
angle_coeff 7 fourier 90.420412        0.343737        0.374972        0.281246
angle_coeff 8 fourier 75.498766        0.343737        0.374972        0.281246
angle_coeff 9 cosine/periodic 88.853997              -1               3

# Negative deformation

variable delta equal -0.02*18.5048994768807
variable deltaxy equal -0.02*xy
variable deltaxz equal -0.02*xz
variable deltayz equal -0.02*yz
change_box all yz delta -0.370097989537614 remap units box
Changing box ...
  triclinic box = (-0.42552991 -0.35196396 -0.50073024) to (15.836977 12.754668 18.004169) with tilt (-7.6114743 -1.9305519 -0.012333238)

# Relax atoms positions

minimize 0 1e-10 100000 100000
Generated 28 of 28 mixed pair_coeff terms from arithmetic mixing rule
For more information see https://docs.lammps.org/err0027 (src/domain.cpp:1052)
Step          Temp          E_pair         E_mol          TotEng         Press
250277   300.36833     -378.35281      165.02604      63.333582      2948.1619
Loop time of 0.0242532 on 1 procs for 47 steps with 310 atoms

Minimization stats:
  Stopping criterion = linesearch alpha is zero
  Energy initial, next-to-last, final =
  Force two-norm initial, final = 149.73268 15.926614
  Force max component initial, final = 18.138395 3.3234639
  Final line search alpha, max atom move = 3.4421503e-11 1.1439862e-10
  Iterations, force evaluations = 47 149

# Obtain new stress tensor

variable tmp equal pxx
variable pxx1 equal -1636.56963794646
variable tmp equal pyy
variable pyy1 equal -107.875500090696
variable tmp equal pzz
variable pzz1 equal -84.8080684215449
variable tmp equal pxy
variable pxy1 equal 96.1820860416002
variable tmp equal pxz
variable pxz1 equal 1143.96557273928
variable tmp equal pyz
variable pyz1 equal -748.500072138278

# Compute elastic constant from pressure tensor

variable C1neg equal -24.3052994157124
variable C2neg equal -16.6297660983288
variable C3neg equal -17.7151259462226
variable C4neg equal 12.5957230241407
variable C5neg equal 0.29385105104865
variable C6neg equal 3.24103391053107

# Reset box and simulation parameters

clear
box tilt large

The 'box' command has been removed and will be ignored

read_restart restart_333-RV-31-vasp.equil
Reading restart file ...
  restart file = 10 Sep 2025, LAMMPS = 10 Sep 2025
  restoring atom style full from restart
  triclinic box = (-0.42552991 -0.35196396 -0.50073024) to (15.836977 12.754668 18.004169) with tilt (-7.6114743 -1.9305519 0.35776475)
  restoring pair style lj/cut from restart
  restoring bond style harmonic from restart
  restoring angle style hybrid from restart
  restoring dihedral style harmonic from restart
  310 atoms
  315 bonds
  584 angles
  669 dihedrals
Finding 1-2 1-3 1-4 neighbors ...
     4 = max # of 1-2 neighbors
    10 = max # of 1-3 neighbors
    14 = max # of special neighbors
  read_restart CPU = 0.001 seconds
include ./input/angles_333-RV-31-vasp.mod
angle_style hybrid fourier cosine/periodic
angle_coeff 1 fourier 58.020602        0.343737        0.374972        0.281246
angle_coeff 2 fourier 83.380072        0.343737        0.374972        0.281246
angle_coeff 3 fourier 157.882480        0.343737        0.374972        0.281246
angle_coeff 4 fourier 221.735285        0.343737        0.374972        0.281246
angle_coeff 5 fourier 32.417871        0.343737        0.374972        0.281246
angle_coeff 6 fourier 114.246973        0.343737        0.374972        0.281246
angle_coeff 7 fourier 90.420412        0.343737        0.374972        0.281246
angle_coeff 8 fourier 75.498766        0.343737        0.374972        0.281246
angle_coeff 9 cosine/periodic 88.853997              -1               3

# Positive deformation

variable delta equal 0.02*18.5048994768807
variable deltaxy equal 0.02*xy
variable deltaxz equal 0.02*xz
variable deltayz equal 0.02*yz
change_box all yz delta 0.370097989537614 remap units box
Changing box ...
  triclinic box = (-0.42552991 -0.35196396 -0.50073024) to (15.836977 12.754668 18.004169) with tilt (-7.6114743 -1.9305519 0.72786274)

# Relax atoms positions

minimize 0 1e-10 100000 100000
Generated 28 of 28 mixed pair_coeff terms from arithmetic mixing rule
For more information see https://docs.lammps.org/err0027 (src/domain.cpp:1052)
Step          Temp          E_pair         E_mol          TotEng         Press
250277   300.36833     -378.55133      172.61926      70.728279      3348.0131
Loop time of 0.017355 on 1 procs for 26 steps with 310 atoms

Minimization stats:
  Stopping criterion = linesearch alpha is zero
  Energy initial, next-to-last, final =
  Force two-norm initial, final = 154.3517 27.134
  Force max component initial, final = 20.616325 5.5304581
  Final line search alpha, max atom move = 1.375272e-11 7.6058841e-11
  Iterations, force evaluations = 26 109

# Obtain new stress tensor

variable tmp equal pe
variable e1 equal -300.898387885948
variable tmp equal press
variable p1 equal -355.783063659252
variable tmp equal pxx
variable pxx1 equal -1254.77352556388
variable tmp equal pyy
variable pyy1 equal -12.3088805428715
variable tmp equal pzz
variable pzz1 equal 199.733215129
variable tmp equal pxy
variable pxy1 equal -119.355157759305
variable tmp equal pxz
variable pxz1 equal 790.778771933631
variable tmp equal pyz
variable pyz1 equal -1918.85545890693

# Compute elastic constant from pressure tensor

variable C1pos equal 22.3963188537995
variable C2pos equal 16.1519330005897
variable C3pos equal 16.2924195284698
variable C4pos equal -6.74394609029745
variable C5pos equal 1.4720829529796
variable C6pos equal -2.16334769152654

# Combine positive and negative

variable C14 equal 0.5*(-24.3052994157124+22.3963188537995)
variable C24 equal 0.5*(-16.6297660983288+16.1519330005897)
variable C34 equal 0.5*(-17.7151259462226+16.2924195284698)
variable C44 equal 0.5*(12.5957230241407+-6.74394609029745)
variable C54 equal 0.5*(0.29385105104865+1.4720829529796)
variable C64 equal 0.5*(3.24103391053107+-2.16334769152654)

# Delete dir to make sure it is not reused

variable dir delete

# uxz Perturbation

variable dir equal 5
include ./input/displace_333-RV-31-vasp.mod
variable len0 equal 18.5048994768807

# Reset box and simulation parameters

clear
box tilt large

The 'box' command has been removed and will be ignored

read_restart restart_333-RV-31-vasp.equil
Reading restart file ...
  restart file = 10 Sep 2025, LAMMPS = 10 Sep 2025
  restoring atom style full from restart
  triclinic box = (-0.42552991 -0.35196396 -0.50073024) to (15.836977 12.754668 18.004169) with tilt (-7.6114743 -1.9305519 0.35776475)
  restoring pair style lj/cut from restart
  restoring bond style harmonic from restart
  restoring angle style hybrid from restart
  restoring dihedral style harmonic from restart
  310 atoms
  315 bonds
  584 angles
  669 dihedrals
Finding 1-2 1-3 1-4 neighbors ...
     4 = max # of 1-2 neighbors
    10 = max # of 1-3 neighbors
    14 = max # of special neighbors
  read_restart CPU = 0.001 seconds
include ./input/angles_333-RV-31-vasp.mod
angle_style hybrid fourier cosine/periodic
angle_coeff 1 fourier 58.020602        0.343737        0.374972        0.281246
angle_coeff 2 fourier 83.380072        0.343737        0.374972        0.281246
angle_coeff 3 fourier 157.882480        0.343737        0.374972        0.281246
angle_coeff 4 fourier 221.735285        0.343737        0.374972        0.281246
angle_coeff 5 fourier 32.417871        0.343737        0.374972        0.281246
angle_coeff 6 fourier 114.246973        0.343737        0.374972        0.281246
angle_coeff 7 fourier 90.420412        0.343737        0.374972        0.281246
angle_coeff 8 fourier 75.498766        0.343737        0.374972        0.281246
angle_coeff 9 cosine/periodic 88.853997              -1               3

# Negative deformation

variable delta equal -0.02*18.5048994768807
variable deltaxy equal -0.02*xy
variable deltaxz equal -0.02*xz
variable deltayz equal -0.02*yz
change_box all xz delta -0.370097989537614 remap units box
Changing box ...
  triclinic box = (-0.42552991 -0.35196396 -0.50073024) to (15.836977 12.754668 18.004169) with tilt (-7.6114743 -2.3006499 0.35776475)

# Relax atoms positions

minimize 0 1e-10 100000 100000
Generated 28 of 28 mixed pair_coeff terms from arithmetic mixing rule
For more information see https://docs.lammps.org/err0027 (src/domain.cpp:1052)
Step          Temp          E_pair         E_mol          TotEng         Press
250277   300.36833     -377.88597      169.26801      68.042389      2453.1268
Loop time of 0.0263094 on 1 procs for 48 steps with 310 atoms

Minimization stats:
  Stopping criterion = linesearch alpha is zero
  Energy initial, next-to-last, final =
  Force two-norm initial, final = 150.47442 15.89289
  Force max component initial, final = 17.761863 2.1324289
  Final line search alpha, max atom move = 3.2318064e-11 6.8915974e-11
  Iterations, force evaluations = 48 151

# Obtain new stress tensor

variable tmp equal pxx
variable pxx1 equal -1803.58537026627
variable tmp equal pyy
variable pyy1 equal 138.648143326253
variable tmp equal pzz
variable pzz1 equal 16.0468054755064
variable tmp equal pxy
variable pxy1 equal 65.182240750627
variable tmp equal pxz
variable pxz1 equal 1746.23895501198
variable tmp equal pyz
variable pyz1 equal -1563.85800900274

# Compute elastic constant from pressure tensor

variable C1neg equal -25.1403780773114
variable C2neg equal -15.3971478812441
variable C3neg equal -17.2108515767373
variable C4neg equal 8.5189333398184
variable C5neg equal 3.30521796241215
variable C6neg equal 3.0860346840762

# Reset box and simulation parameters

clear
box tilt large

The 'box' command has been removed and will be ignored

read_restart restart_333-RV-31-vasp.equil
Reading restart file ...
  restart file = 10 Sep 2025, LAMMPS = 10 Sep 2025
  restoring atom style full from restart
  triclinic box = (-0.42552991 -0.35196396 -0.50073024) to (15.836977 12.754668 18.004169) with tilt (-7.6114743 -1.9305519 0.35776475)
  restoring pair style lj/cut from restart
  restoring bond style harmonic from restart
  restoring angle style hybrid from restart
  restoring dihedral style harmonic from restart
  310 atoms
  315 bonds
  584 angles
  669 dihedrals
Finding 1-2 1-3 1-4 neighbors ...
     4 = max # of 1-2 neighbors
    10 = max # of 1-3 neighbors
    14 = max # of special neighbors
  read_restart CPU = 0.001 seconds
include ./input/angles_333-RV-31-vasp.mod
angle_style hybrid fourier cosine/periodic
angle_coeff 1 fourier 58.020602        0.343737        0.374972        0.281246
angle_coeff 2 fourier 83.380072        0.343737        0.374972        0.281246
angle_coeff 3 fourier 157.882480        0.343737        0.374972        0.281246
angle_coeff 4 fourier 221.735285        0.343737        0.374972        0.281246
angle_coeff 5 fourier 32.417871        0.343737        0.374972        0.281246
angle_coeff 6 fourier 114.246973        0.343737        0.374972        0.281246
angle_coeff 7 fourier 90.420412        0.343737        0.374972        0.281246
angle_coeff 8 fourier 75.498766        0.343737        0.374972        0.281246
angle_coeff 9 cosine/periodic 88.853997              -1               3

# Positive deformation

variable delta equal 0.02*18.5048994768807
variable deltaxy equal 0.02*xy
variable deltaxz equal 0.02*xz
variable deltayz equal 0.02*yz
change_box all xz delta 0.370097989537614 remap units box
Changing box ...
  triclinic box = (-0.42552991 -0.35196396 -0.50073024) to (15.836977 12.754668 18.004169) with tilt (-7.6114743 -1.5604539 0.35776475)

# Relax atoms positions

minimize 0 1e-10 100000 100000
Generated 28 of 28 mixed pair_coeff terms from arithmetic mixing rule
For more information see https://docs.lammps.org/err0027 (src/domain.cpp:1052)
Step          Temp          E_pair         E_mol          TotEng         Press
250277   300.36833     -379.09434      167.61707      65.183079      3838.8647
Loop time of 0.0235256 on 1 procs for 41 steps with 310 atoms

Minimization stats:
  Stopping criterion = linesearch alpha is zero
  Energy initial, next-to-last, final =
  Force two-norm initial, final = 151.3458 18.947435
  Force max component initial, final = 17.524081 2.7800309
  Final line search alpha, max atom move = 3.1510009e-11 8.7598798e-11
  Iterations, force evaluations = 41 137

# Obtain new stress tensor

variable tmp equal pe
variable e1 equal -308.52104911659
variable tmp equal press
variable p1 equal -488.497457133884
variable tmp equal pxx
variable pxx1 equal -1683.79835789324
variable tmp equal pyy
variable pyy1 equal 572.333445649077
variable tmp equal pzz
variable pzz1 equal -354.027459157491
variable tmp equal pxy
variable pxy1 equal 299.052354024083
variable tmp equal pxz
variable pxz1 equal 390.147842474866
variable tmp equal pyz
variable pyz1 equal -1585.34955868152

# Compute elastic constant from pressure tensor

variable C1pos equal 24.5414430154463
variable C2pos equal 13.22872136963
variable C3pos equal 19.0612228999023
variable C4pos equal -8.4114755914245
variable C5pos equal 3.47523760027342
variable C6pos equal -4.25538525044348

# Combine positive and negative

variable C15 equal 0.5*(-25.1403780773114+24.5414430154463)
variable C25 equal 0.5*(-15.3971478812441+13.22872136963)
variable C35 equal 0.5*(-17.2108515767373+19.0612228999023)
variable C45 equal 0.5*(8.5189333398184+-8.4114755914245)
variable C55 equal 0.5*(3.30521796241215+3.47523760027342)
variable C65 equal 0.5*(3.0860346840762+-4.25538525044348)

# Delete dir to make sure it is not reused

variable dir delete

# uxy Perturbation

variable dir equal 6
include ./input/displace_333-RV-31-vasp.mod
variable len0 equal 13.106631915133

# Reset box and simulation parameters

clear
box tilt large

The 'box' command has been removed and will be ignored

read_restart restart_333-RV-31-vasp.equil
Reading restart file ...
  restart file = 10 Sep 2025, LAMMPS = 10 Sep 2025
  restoring atom style full from restart
  triclinic box = (-0.42552991 -0.35196396 -0.50073024) to (15.836977 12.754668 18.004169) with tilt (-7.6114743 -1.9305519 0.35776475)
  restoring pair style lj/cut from restart
  restoring bond style harmonic from restart
  restoring angle style hybrid from restart
  restoring dihedral style harmonic from restart
  310 atoms
  315 bonds
  584 angles
  669 dihedrals
Finding 1-2 1-3 1-4 neighbors ...
     4 = max # of 1-2 neighbors
    10 = max # of 1-3 neighbors
    14 = max # of special neighbors
  read_restart CPU = 0.001 seconds
include ./input/angles_333-RV-31-vasp.mod
angle_style hybrid fourier cosine/periodic
angle_coeff 1 fourier 58.020602        0.343737        0.374972        0.281246
angle_coeff 2 fourier 83.380072        0.343737        0.374972        0.281246
angle_coeff 3 fourier 157.882480        0.343737        0.374972        0.281246
angle_coeff 4 fourier 221.735285        0.343737        0.374972        0.281246
angle_coeff 5 fourier 32.417871        0.343737        0.374972        0.281246
angle_coeff 6 fourier 114.246973        0.343737        0.374972        0.281246
angle_coeff 7 fourier 90.420412        0.343737        0.374972        0.281246
angle_coeff 8 fourier 75.498766        0.343737        0.374972        0.281246
angle_coeff 9 cosine/periodic 88.853997              -1               3

# Negative deformation

variable delta equal -0.02*13.106631915133
variable deltaxy equal -0.02*xy
variable deltaxz equal -0.02*xz
variable deltayz equal -0.02*yz
change_box all xy delta -0.26213263830266 remap units box
Changing box ...
  triclinic box = (-0.42552991 -0.35196396 -0.50073024) to (15.836977 12.754668 18.004169) with tilt (-7.8736069 -1.9305519 0.35776475)

# Relax atoms positions

minimize 0 1e-10 100000 100000
Generated 28 of 28 mixed pair_coeff terms from arithmetic mixing rule
For more information see https://docs.lammps.org/err0027 (src/domain.cpp:1052)
Step          Temp          E_pair         E_mol          TotEng         Press
250277   300.36833     -379.45458      169.01175      66.217518      3086.2999
Loop time of 0.0238337 on 1 procs for 41 steps with 310 atoms

Minimization stats:
  Stopping criterion = linesearch alpha is zero
  Energy initial, next-to-last, final =
  Force two-norm initial, final = 158.07595 18.888962
  Force max component initial, final = 20.422116 3.6164669
  Final line search alpha, max atom move = 3.0542611e-11 1.1045634e-10
  Iterations, force evaluations = 41 137

# Obtain new stress tensor

variable tmp equal pxx
variable pxx1 equal -2108.89802836022
variable tmp equal pyy
variable pyy1 equal 240.035570143246
variable tmp equal pzz
variable pzz1 equal -563.385389161543
variable tmp equal pxy
variable pxy1 equal 1124.28281391754
variable tmp equal pxz
variable pxz1 equal 1128.54818595401
variable tmp equal pyz
variable pyz1 equal -1293.1454469619

# Compute elastic constant from pressure tensor

variable C1neg equal -26.6669413677812
variable C2neg equal -14.8902107471591
variable C3neg equal -20.1080125499226
variable C4neg equal 9.8724961500226
variable C5neg equal 0.2167641171223
variable C6neg equal 8.38153754991077

# Reset box and simulation parameters

clear
box tilt large

The 'box' command has been removed and will be ignored

read_restart restart_333-RV-31-vasp.equil
Reading restart file ...
  restart file = 10 Sep 2025, LAMMPS = 10 Sep 2025
  restoring atom style full from restart
  triclinic box = (-0.42552991 -0.35196396 -0.50073024) to (15.836977 12.754668 18.004169) with tilt (-7.6114743 -1.9305519 0.35776475)
  restoring pair style lj/cut from restart
  restoring bond style harmonic from restart
  restoring angle style hybrid from restart
  restoring dihedral style harmonic from restart
  310 atoms
  315 bonds
  584 angles
  669 dihedrals
Finding 1-2 1-3 1-4 neighbors ...
     4 = max # of 1-2 neighbors
    10 = max # of 1-3 neighbors
    14 = max # of special neighbors
  read_restart CPU = 0.001 seconds
include ./input/angles_333-RV-31-vasp.mod
angle_style hybrid fourier cosine/periodic
angle_coeff 1 fourier 58.020602        0.343737        0.374972        0.281246
angle_coeff 2 fourier 83.380072        0.343737        0.374972        0.281246
angle_coeff 3 fourier 157.882480        0.343737        0.374972        0.281246
angle_coeff 4 fourier 221.735285        0.343737        0.374972        0.281246
angle_coeff 5 fourier 32.417871        0.343737        0.374972        0.281246
angle_coeff 6 fourier 114.246973        0.343737        0.374972        0.281246
angle_coeff 7 fourier 90.420412        0.343737        0.374972        0.281246
angle_coeff 8 fourier 75.498766        0.343737        0.374972        0.281246
angle_coeff 9 cosine/periodic 88.853997              -1               3

# Positive deformation

variable delta equal 0.02*13.106631915133
variable deltaxy equal 0.02*xy
variable deltaxz equal 0.02*xz
variable deltayz equal 0.02*yz
change_box all xy delta 0.26213263830266 remap units box
Changing box ...
  triclinic box = (-0.42552991 -0.35196396 -0.50073024) to (15.836977 12.754668 18.004169) with tilt (-7.3493416 -1.9305519 0.35776475)

# Relax atoms positions

minimize 0 1e-10 100000 100000
Generated 28 of 28 mixed pair_coeff terms from arithmetic mixing rule
For more information see https://docs.lammps.org/err0027 (src/domain.cpp:1052)
Step          Temp          E_pair         E_mol          TotEng         Press
250277   300.36833     -377.63037      169.06093      68.090903      3187.5629
Loop time of 0.0222929 on 1 procs for 36 steps with 310 atoms

Minimization stats:
  Stopping criterion = linesearch alpha is zero
  Energy initial, next-to-last, final =
  Force two-norm initial, final = 160.66573 19.27018
  Force max component initial, final = 22.331692 3.0529498
  Final line search alpha, max atom move = 1.7822726e-11 5.4411888e-11
  Iterations, force evaluations = 36 129

# Obtain new stress tensor

variable tmp equal pe
variable e1 equal -306.742253646682
variable tmp equal press
variable p1 equal -202.773247128274
variable tmp equal pxx
variable pxx1 equal -1153.3766402791
variable tmp equal pyy
variable pyy1 equal 573.325554908191
variable tmp equal pzz
variable pzz1 equal -28.2686560139136
variable tmp equal pxy
variable pxy1 equal -550.202358453408
variable tmp equal pxz
variable pxz1 equal 1179.54563203872
variable tmp equal pyz
variable pyz1 equal -1185.87078486416

# Compute elastic constant from pressure tensor

variable C1pos equal 21.8893344273756
variable C2pos equal 13.2237608233344
variable C3pos equal 17.4324288841844
variable C4pos equal -10.4088694605113
variable C5pos equal -0.47175134754585
variable C6pos equal -0.00911168805602472

# Combine positive and negative

variable C16 equal 0.5*(-26.6669413677812+21.8893344273756)
variable C26 equal 0.5*(-14.8902107471591+13.2237608233344)
variable C36 equal 0.5*(-20.1080125499226+17.4324288841844)
variable C46 equal 0.5*(9.8724961500226+-10.4088694605113)
variable C56 equal 0.5*(0.2167641171223+-0.47175134754585)
variable C66 equal 0.5*(8.38153754991077+-0.00911168805602472)

# Delete dir to make sure it is not reused

variable dir delete

# Output final values

variable C11all equal 6.03485075639445
variable C22all equal 20.6179059359942
variable C33all equal 12.1627185574962

variable C12all equal 0.5*(6.5629011097094+4.25829878549817)
variable C13all equal 0.5*(5.52969867312815+5.7469510699551)
variable C23all equal 0.5*(6.07287149889055+5.2792314407159)

variable C44all equal 2.92588846692162
variable C55all equal 3.39022778134279
variable C66all equal 4.18621293092737

variable C14all equal 0.5*(-0.954490280956451+1.18912173632622)
variable C15all equal 0.5*(-0.299467530932549+0.14093222424665)
variable C16all equal 0.5*(-2.3888034702028+-2.04382491913796)

variable C24all equal 0.5*(-0.23891654886955+-0.26487715832835)
variable C25all equal 0.5*(-1.08421325580705+-1.54207325536188)
variable C26all equal 0.5*(-0.83322496191235+-2.34032001062268)

variable C34all equal 0.5*(-0.7113532088764+0.594383897995625)
variable C35all equal 0.5*(0.9251856615825+0.583333682172775)
variable C36all equal 0.5*(-1.3377918328691+0.651227345725265)

variable C45all equal 0.5*(0.0537288741969499+0.882967002014125)
variable C46all equal 0.5*(-0.268186655244349+0.538843109502265)
variable C56all equal 0.5*(-0.127493615211775+-0.58467528318364)

# Average moduli for cubic crystals

variable C11cubic equal (6.03485075639445+20.6179059359942+12.1627185574962)/3.0
variable C12cubic equal (5.41059994760379+5.63832487154163+5.67605146980322)/3.0
variable C44cubic equal (2.92588846692162+3.39022778134279+4.18621293092737)/3.0

variable bulkmodulus equal (12.9384917499616+2*5.57499209631621)/3.0
variable shearmodulus1 equal 3.50077639306393
variable shearmodulus2 equal (12.9384917499616-5.57499209631621)/2.0
variable poissonratio equal 1.0/(1.0+12.9384917499616/5.57499209631621)

Elastic Constant 1 1 = 6.03485075639445
Elastic Constant 2 2 = 20.6179059359942
Elastic Constant 3 3 = 12.1627185574962

Elastic Constant 1 2 = 5.41059994760379
Elastic Constant 1 3 = 5.63832487154163
Elastic Constant 2 3 = 5.67605146980322

Elastic Constant 4 4 = 2.92588846692162
Elastic Constant 5 5 = 3.39022778134279
Elastic Constant 6 6 = 4.18621293092737

Elastic Constant 1 4 = 0.117315727684885
Elastic Constant 1 5 = -0.0792676533429495
Elastic Constant 1 6 = -2.21631419467038

Elastic Constant 2 4 = -0.25189685359895
Elastic Constant 2 5 = -1.31314325558446
Elastic Constant 2 6 = -1.58677248626751

Elastic Constant 3 4 = -0.0584846554403875
Elastic Constant 3 5 = 0.754259671877638
Elastic Constant 3 6 = -0.343282243571918

Elastic Constant 4 5 = 0.468347938105537
Elastic Constant 4 6 = 0.135328227128958
Elastic Constant 5 6 = -0.356084449197708

Bulk Modulus = 8.02949198086467 GPa
Shear Modulus 1 = 3.50077639306393 GPa
Shear Modulus 2 = 3.68174982682269 GPa
Poisson Ratio = 0.301131442499251

variable rho equal density
density (g/cm^3) = 1.2377618643455
