units           real
atom_style      full
boundary        p p p

pair_style      lj/cut 5.000
bond_style      harmonic
angle_style     hybrid cosine/periodic fourier
dihedral_style  harmonic

dielectric      1.0
special_bonds   lj/coul 0.0 0.0 1.0
pair_modify     tail yes mix arithmetic
box tilt        large

The 'box' command has been removed and will be ignored

read_data       ./dat/data.333-EXP-6-vasp
Reading data file ...
  triclinic box = (0 0 0) to (14.494141 13.039092 16.770982) with tilt (-7.39153 0.991947 1.03078)
  reading atoms ...
  274 atoms
  scanning bonds ...
  scanning angles ...
  scanning dihedrals ...
  triclinic box = (0 0 0) to (14.494141 13.039092 16.770982) with tilt (-7.39153 0.991947 1.03078)
  reading bonds ...
  294 bonds
  reading angles ...
  557 angles
  reading dihedrals ...
  696 dihedrals
Finding 1-2 1-3 1-4 neighbors ...
     4 = max # of 1-2 neighbors
     8 = max # of 1-3 neighbors
    12 = max # of special neighbors

#### Atom Groupings ####
group           fram     id   1:274
274 atoms in group fram
#### END Atom Groupings ####

compute am all property/atom mass
dump        atom_pos all extxyz 100 ./output/333-EXP-6-vasp.lammpstrj
dump_modify atom_pos element Si C O H mass yes
thermo          1000
thermo_style    custom step temp pe ke etotal press vol density

variable up equal 2e-2
variable cfac equal 1.0e-4
variable cunits string GPa

# Define minimization parameters
variable etol equal 0.0
variable ftol equal 1.0e-10
variable maxiter equal 100000
variable maxeval equal 100000
variable dmax equal 1.0e-2

variable temp equal 300.0
variable thermal_damp index 100.0
variable pressure_damp index 500.0

fix relax all box/relax aniso 0.0 vmax 0.001
unfix relax
minimize 0 1e-10 100000 100000
Generated 6 of 6 mixed pair_coeff terms from arithmetic mixing rule
For more information see https://docs.lammps.org/err0027 (src/domain.cpp:1052)
Step          Temp          PotEng         KinEng         TotEng         Press          Volume        Density
0   0              903.0622       0              903.0622       83613.046      3169.5552      1.5987458
Loop time of 0.0563011 on 1 procs for 122 steps with 274 atoms

Minimization stats:
  Stopping criterion = linesearch alpha is zero
  Energy initial, next-to-last, final =
  Force two-norm initial, final = 757.65712 17.452515
  Force max component initial, final = 86.772061 4.2494746
  Final line search alpha, max atom move = 3.8430685e-11 1.6331022e-10
  Iterations, force evaluations = 122 299

# Generating the full routine as described in the paper for UFF
fix nvt_relax   all nvt temp 300 300 100.0
run 100000      # 100 picoseconds
Generated 6 of 6 mixed pair_coeff terms from arithmetic mixing rule
For more information see https://docs.lammps.org/err0027 (src/domain.cpp:1052)
Step          Temp          PotEng         KinEng         TotEng         Press          Volume        Density
122   0             -55.822182      0             -55.822182      14197.031      3169.5552      1.5987458
Averages over the last 51 of 102 rows, steps 51000 to 100122:
Temp PotEng KinEng TotEng Press Volume Density
299.649 133.816 243.843 377.659 14133.2 3169.56 1.59875
Loop time of 18.6402 on 1 procs for 100000 steps with 274 atoms

unfix           nvt_relax

fix npt_relax   all npt temp 300 300 100.0 iso 0 0 500.0
run 100000      # 100 picoseconds
Generated 6 of 6 mixed pair_coeff terms from arithmetic mixing rule
For more information see https://docs.lammps.org/err0027 (src/domain.cpp:1052)
Step          Temp          PotEng         KinEng         TotEng         Press          Volume        Density
100122   288.39293      138.16597      234.68296      372.84893      18467.986      3169.5552      1.5987458
Averages over the last 51 of 102 rows, steps 151000 to 200122:
Temp PotEng KinEng TotEng Press Volume Density
299.862 108.28 244.016 352.296 -1196.18 3391.13 1.49443
Loop time of 17.7138 on 1 procs for 100000 steps with 274 atoms

unfix           npt_relax

# run 100000      # 100 picoseconds
# unfix           nvt_heat
#
# run 100000      # 100 picoseconds
# unfix           npt_heat
#
# run 700000      # 700 picoseconds
# unfix           cooling_npt
#
# run 100000      # 100 picoseconds
# unfix           npt_final

# density computation
variable rho equal density
fix integrate  all npt temp 300 300 100.0 iso 0 0 500.0
fix rho50k all ave/time 10 5000 50000 v_rho mode scalar ave one
run 50000
Generated 6 of 6 mixed pair_coeff terms from arithmetic mixing rule
For more information see https://docs.lammps.org/err0027 (src/domain.cpp:1052)
Step          Temp          PotEng         KinEng         TotEng         Press          Volume        Density
200122   292.8995       112.47981      238.35023      350.83004     -620.92376      3359.5162      1.5083461
Averages over the last 26 of 52 rows, steps 226000 to 250122:
Temp PotEng KinEng TotEng Press Volume Density
301.926 113.151 245.696 358.847 -281.168 3393.25 1.49348
Loop time of 9.04253 on 1 procs for 50000 steps with 274 atoms

unfix integrate
unfix rho50k

# Compute initial state
fix 3 all box/relax  aniso 0.0
minimize 0 1e-10 100000 100000
Generated 6 of 6 mixed pair_coeff terms from arithmetic mixing rule
 (src/min.cpp:222)
For more information see https://docs.lammps.org/err0027 (src/domain.cpp:1052)
Step          Temp          PotEng         KinEng         TotEng         Press          Volume        Density
250122   315.90634      101.68237      257.07231      358.75467      3128.5102      3357.1805      1.5093955
Loop time of 0.0314464 on 1 procs for 107 steps with 274 atoms

Minimization stats:
  Stopping criterion = linesearch alpha is zero
  Energy initial, next-to-last, final =
  Force two-norm initial, final = 697.20305 200.79641
  Force max component initial, final = 332.79222 25.467772
  Final line search alpha, max atom move = 1.8172345e-13 4.6280913e-12
  Iterations, force evaluations = 107 213

variable tmp equal pxx
variable pxx0 equal 3496.09732050612
variable tmp equal pyy
variable pyy0 equal 3405.98752797293
variable tmp equal pzz
variable pzz0 equal 4030.65864106139
variable tmp equal pyz
variable pyz0 equal -6439.64995173441
variable tmp equal pxz
variable pxz0 equal -5006.29692222373
variable tmp equal pxy
variable pxy0 equal 888.785162759249

variable tmp equal lx
variable lx0 equal 14.7055355301521
variable tmp equal ly
variable ly0 equal 13.287307857401
variable tmp equal lz
variable lz0 equal 17.1673723554387

# These formulas define the derivatives w.r.t. strain components
# Constants uses $, variables use v_
variable d1 equal -(v_pxx1-3496.09732050612)/(v_delta/v_len0)*0.0001
variable d2 equal -(v_pyy1-3405.98752797293)/(v_delta/v_len0)*0.0001
variable d3 equal -(v_pzz1-4030.65864106139)/(v_delta/v_len0)*0.0001
variable d4 equal -(v_pyz1--6439.64995173441)/(v_delta/v_len0)*0.0001
variable d5 equal -(v_pxz1--5006.29692222373)/(v_delta/v_len0)*0.0001
variable d6 equal -(v_pxy1-888.785162759249)/(v_delta/v_len0)*0.0001

# Write restart
unfix 3
write_restart restart_333-EXP-6-vasp.equil
System init for write_restart ...
Generated 6 of 6 mixed pair_coeff terms from arithmetic mixing rule

# uxx Perturbation

variable dir equal 1
include ./input/displace_333-EXP-6-vasp.mod
variable len0 equal 14.7055355301521

# Reset box and simulation parameters

clear
box tilt large

The 'box' command has been removed and will be ignored

read_restart restart_333-EXP-6-vasp.equil
Reading restart file ...
  restart file = 10 Sep 2025, LAMMPS = 10 Sep 2025
  restoring atom style full from restart
  triclinic box = (-0.10569727 -0.12410793 -0.19819518) to (14.599838 13.1632 16.969177) with tilt (-7.5322373 1.0153922 1.055143)
  restoring pair style lj/cut from restart
  restoring bond style harmonic from restart
  restoring angle style hybrid from restart
  restoring dihedral style harmonic from restart
  274 atoms
  294 bonds
  557 angles
  696 dihedrals
Finding 1-2 1-3 1-4 neighbors ...
     4 = max # of 1-2 neighbors
     8 = max # of 1-3 neighbors
    12 = max # of special neighbors
  read_restart CPU = 0.001 seconds
include ./input/angles_333-EXP-6-vasp.mod
angle_style hybrid fourier cosine/periodic
angle_coeff 1 fourier 157.882480        0.343737        0.374972        0.281246
angle_coeff 2 fourier 221.735285        0.343737        0.374972        0.281246
angle_coeff 3 fourier 83.380072        0.343737        0.374972        0.281246
angle_coeff 4 fourier 58.020602        0.343737        0.374972        0.281246
angle_coeff 5 fourier 114.246973        0.343737        0.374972        0.281246
angle_coeff 6 fourier 32.417871        0.343737        0.374972        0.281246
angle_coeff 7 fourier 90.420412        0.343737        0.374972        0.281246
angle_coeff 8 fourier 75.498766        0.343737        0.374972        0.281246
angle_coeff 9 cosine/periodic 88.853997              -1               3

# Negative deformation

variable delta equal -0.02*14.7055355301521
variable deltaxy equal -0.02*xy
variable deltaxz equal -0.02*xz
variable deltayz equal -0.02*yz
change_box all x delta 0 -0.294110710603042 xy delta 0.15064474527401 xz delta -0.0203078430420587 remap units box
Changing box ...
  triclinic box = (-0.10569727 -0.12410793 -0.19819518) to (14.305728 13.1632 16.969177) with tilt (-7.5322373 1.0153922 1.055143)
  triclinic box = (-0.10569727 -0.12410793 -0.19819518) to (14.305728 13.1632 16.969177) with tilt (-7.3815925 1.0153922 1.055143)
  triclinic box = (-0.10569727 -0.12410793 -0.19819518) to (14.305728 13.1632 16.969177) with tilt (-7.3815925 0.99508431 1.055143)

# Relax atoms positions

minimize 0 1e-10 100000 100000
Generated 6 of 6 mixed pair_coeff terms from arithmetic mixing rule
For more information see https://docs.lammps.org/err0027 (src/domain.cpp:1052)
Step          Temp          E_pair         E_mol          TotEng         Press
250229   315.90634     -346.20019      354.8654       265.73752      26275.928
Loop time of 0.0168097 on 1 procs for 39 steps with 274 atoms

Minimization stats:
  Stopping criterion = linesearch alpha is zero
  Energy initial, next-to-last, final =
  Force two-norm initial, final = 262.89951 15.893076
  Force max component initial, final = 37.75533 2.1779153
  Final line search alpha, max atom move = 2.7842954e-11 6.0639594e-11
  Iterations, force evaluations = 39 133

# Obtain new stress tensor

variable tmp equal pxx
variable pxx1 equal 14598.548042898
variable tmp equal pyy
variable pyy1 equal 1894.82801643333
variable tmp equal pzz
variable pzz1 equal 10016.120294049
variable tmp equal pxy
variable pxy1 equal 1761.01855332726
variable tmp equal pxz
variable pxz1 equal -784.360878936303
variable tmp equal pyz
variable pyz1 equal -3670.85181452834

# Compute elastic constant from pressure tensor

variable C1neg equal 55.5122536119594
variable C2neg equal -7.555797557698
variable C3neg equal 29.9273082649381
variable C4neg equal 13.8439906860303
variable C5neg equal 21.1096802164371
variable C6neg equal 4.36116695284005

# Reset box and simulation parameters

clear
box tilt large

The 'box' command has been removed and will be ignored

read_restart restart_333-EXP-6-vasp.equil
Reading restart file ...
  restart file = 10 Sep 2025, LAMMPS = 10 Sep 2025
  restoring atom style full from restart
  triclinic box = (-0.10569727 -0.12410793 -0.19819518) to (14.599838 13.1632 16.969177) with tilt (-7.5322373 1.0153922 1.055143)
  restoring pair style lj/cut from restart
  restoring bond style harmonic from restart
  restoring angle style hybrid from restart
  restoring dihedral style harmonic from restart
  274 atoms
  294 bonds
  557 angles
  696 dihedrals
Finding 1-2 1-3 1-4 neighbors ...
     4 = max # of 1-2 neighbors
     8 = max # of 1-3 neighbors
    12 = max # of special neighbors
  read_restart CPU = 0.001 seconds
include ./input/angles_333-EXP-6-vasp.mod
angle_style hybrid fourier cosine/periodic
angle_coeff 1 fourier 157.882480        0.343737        0.374972        0.281246
angle_coeff 2 fourier 221.735285        0.343737        0.374972        0.281246
angle_coeff 3 fourier 83.380072        0.343737        0.374972        0.281246
angle_coeff 4 fourier 58.020602        0.343737        0.374972        0.281246
angle_coeff 5 fourier 114.246973        0.343737        0.374972        0.281246
angle_coeff 6 fourier 32.417871        0.343737        0.374972        0.281246
angle_coeff 7 fourier 90.420412        0.343737        0.374972        0.281246
angle_coeff 8 fourier 75.498766        0.343737        0.374972        0.281246
angle_coeff 9 cosine/periodic 88.853997              -1               3

# Positive deformation

variable delta equal 0.02*14.7055355301521
variable deltaxy equal 0.02*xy
variable deltaxz equal 0.02*xz
variable deltayz equal 0.02*yz
change_box all x delta 0 0.294110710603042 xy delta -0.15064474527401 xz delta 0.0203078430420587 remap units box
Changing box ...
  triclinic box = (-0.10569727 -0.12410793 -0.19819518) to (14.893949 13.1632 16.969177) with tilt (-7.5322373 1.0153922 1.055143)
  triclinic box = (-0.10569727 -0.12410793 -0.19819518) to (14.893949 13.1632 16.969177) with tilt (-7.682882 1.0153922 1.055143)
  triclinic box = (-0.10569727 -0.12410793 -0.19819518) to (14.893949 13.1632 16.969177) with tilt (-7.682882 1.0357 1.055143)

# Relax atoms positions

minimize 0 1e-10 100000 100000
Generated 6 of 6 mixed pair_coeff terms from arithmetic mixing rule
For more information see https://docs.lammps.org/err0027 (src/domain.cpp:1052)
Step          Temp          E_pair         E_mol          TotEng         Press
250229   315.90634     -356.29325      367.54003      268.31908     -18349.672
Loop time of 0.0166312 on 1 procs for 41 steps with 274 atoms

Minimization stats:
  Stopping criterion = linesearch alpha is zero
  Energy initial, next-to-last, final =
  Force two-norm initial, final = 250.2597 14.245053
  Force max component initial, final = 34.920744 1.8162165
  Final line search alpha, max atom move = 3.7823812e-11 6.869623e-11
  Iterations, force evaluations = 41 138

# Obtain new stress tensor

variable tmp equal pe
variable e1 equal -131.652516308386
variable tmp equal press
variable p1 equal -2135.64606563719
variable tmp equal pxx
variable pxx1 equal -6833.47175676226
variable tmp equal pyy
variable pyy1 equal -3235.69091059442
variable tmp equal pzz
variable pzz1 equal 3662.22447044511
variable tmp equal pxy
variable pxy1 equal 2438.83978218917
variable tmp equal pxz
variable pxz1 equal -931.958360594938
variable tmp equal pyz
variable pyz1 equal -3530.03658056461

# Compute elastic constant from pressure tensor

variable C1pos equal 51.6478453863419
variable C2pos equal 33.2083921928368
variable C3pos equal 1.8421708530814
variable C4pos equal -14.548066855849
variable C5pos equal -20.371692808144
variable C6pos equal -7.7502730971496

# Combine positive and negative

variable C11 equal 0.5*(55.5122536119594+51.6478453863419)
variable C21 equal 0.5*(-7.555797557698+33.2083921928368)
variable C31 equal 0.5*(29.9273082649381+1.8421708530814)
variable C41 equal 0.5*(13.8439906860303+-14.548066855849)
variable C51 equal 0.5*(21.1096802164371+-20.371692808144)
variable C61 equal 0.5*(4.36116695284005+-7.7502730971496)

# Delete dir to make sure it is not reused

variable dir delete

# uyy Perturbation

variable dir equal 2
include ./input/displace_333-EXP-6-vasp.mod
variable len0 equal 13.287307857401

# Reset box and simulation parameters

clear
box tilt large

The 'box' command has been removed and will be ignored

read_restart restart_333-EXP-6-vasp.equil
Reading restart file ...
  restart file = 10 Sep 2025, LAMMPS = 10 Sep 2025
  restoring atom style full from restart
  triclinic box = (-0.10569727 -0.12410793 -0.19819518) to (14.599838 13.1632 16.969177) with tilt (-7.5322373 1.0153922 1.055143)
  restoring pair style lj/cut from restart
  restoring bond style harmonic from restart
  restoring angle style hybrid from restart
  restoring dihedral style harmonic from restart
  274 atoms
  294 bonds
  557 angles
  696 dihedrals
Finding 1-2 1-3 1-4 neighbors ...
     4 = max # of 1-2 neighbors
     8 = max # of 1-3 neighbors
    12 = max # of special neighbors
  read_restart CPU = 0.001 seconds
include ./input/angles_333-EXP-6-vasp.mod
angle_style hybrid fourier cosine/periodic
angle_coeff 1 fourier 157.882480        0.343737        0.374972        0.281246
angle_coeff 2 fourier 221.735285        0.343737        0.374972        0.281246
angle_coeff 3 fourier 83.380072        0.343737        0.374972        0.281246
angle_coeff 4 fourier 58.020602        0.343737        0.374972        0.281246
angle_coeff 5 fourier 114.246973        0.343737        0.374972        0.281246
angle_coeff 6 fourier 32.417871        0.343737        0.374972        0.281246
angle_coeff 7 fourier 90.420412        0.343737        0.374972        0.281246
angle_coeff 8 fourier 75.498766        0.343737        0.374972        0.281246
angle_coeff 9 cosine/periodic 88.853997              -1               3

# Negative deformation

variable delta equal -0.02*13.287307857401
variable deltaxy equal -0.02*xy
variable deltaxz equal -0.02*xz
variable deltayz equal -0.02*yz
change_box all y delta 0 -0.26574615714802 yz delta -0.0211028597807067 remap units box
Changing box ...
  triclinic box = (-0.10569727 -0.12410793 -0.19819518) to (14.599838 12.897454 16.969177) with tilt (-7.5322373 1.0153922 1.055143)
  triclinic box = (-0.10569727 -0.12410793 -0.19819518) to (14.599838 12.897454 16.969177) with tilt (-7.5322373 1.0153922 1.0340401)

# Relax atoms positions

minimize 0 1e-10 100000 100000
Generated 6 of 6 mixed pair_coeff terms from arithmetic mixing rule
For more information see https://docs.lammps.org/err0027 (src/domain.cpp:1052)
Step          Temp          E_pair         E_mol          TotEng         Press
250229   315.90634     -343.52168      353.94933      267.49995      25691.604
Loop time of 0.0159468 on 1 procs for 36 steps with 274 atoms

Minimization stats:
  Stopping criterion = linesearch alpha is zero
  Energy initial, next-to-last, final =
  Force two-norm initial, final = 260.05951 17.332575
  Force max component initial, final = 30.667291 3.5438425
  Final line search alpha, max atom move = 2.9195816e-11 1.0346537e-10
  Iterations, force evaluations = 36 127

# Obtain new stress tensor

variable tmp equal pxx
variable pxx1 equal 6191.2496749347
variable tmp equal pyy
variable pyy1 equal 5321.13852238175
variable tmp equal pzz
variable pzz1 equal 10787.6037552418
variable tmp equal pxy
variable pxy1 equal 1807.81745046433
variable tmp equal pxz
variable pxz1 equal -657.040696999213
variable tmp equal pyz
variable pyz1 equal -3666.65360768714

# Compute elastic constant from pressure tensor

variable C1neg equal 13.4757617721429
variable C2neg equal 9.5757549720441
variable C3neg equal 33.784725570902
variable C4neg equal 13.8649817202364
variable C5neg equal 21.7462811261226
variable C6neg equal 4.59516143852541

# Reset box and simulation parameters

clear
box tilt large

The 'box' command has been removed and will be ignored

read_restart restart_333-EXP-6-vasp.equil
Reading restart file ...
  restart file = 10 Sep 2025, LAMMPS = 10 Sep 2025
  restoring atom style full from restart
  triclinic box = (-0.10569727 -0.12410793 -0.19819518) to (14.599838 13.1632 16.969177) with tilt (-7.5322373 1.0153922 1.055143)
  restoring pair style lj/cut from restart
  restoring bond style harmonic from restart
  restoring angle style hybrid from restart
  restoring dihedral style harmonic from restart
  274 atoms
  294 bonds
  557 angles
  696 dihedrals
Finding 1-2 1-3 1-4 neighbors ...
     4 = max # of 1-2 neighbors
     8 = max # of 1-3 neighbors
    12 = max # of special neighbors
  read_restart CPU = 0.001 seconds
include ./input/angles_333-EXP-6-vasp.mod
angle_style hybrid fourier cosine/periodic
angle_coeff 1 fourier 157.882480        0.343737        0.374972        0.281246
angle_coeff 2 fourier 221.735285        0.343737        0.374972        0.281246
angle_coeff 3 fourier 83.380072        0.343737        0.374972        0.281246
angle_coeff 4 fourier 58.020602        0.343737        0.374972        0.281246
angle_coeff 5 fourier 114.246973        0.343737        0.374972        0.281246
angle_coeff 6 fourier 32.417871        0.343737        0.374972        0.281246
angle_coeff 7 fourier 90.420412        0.343737        0.374972        0.281246
angle_coeff 8 fourier 75.498766        0.343737        0.374972        0.281246
angle_coeff 9 cosine/periodic 88.853997              -1               3

# Positive deformation

variable delta equal 0.02*13.287307857401
variable deltaxy equal 0.02*xy
variable deltaxz equal 0.02*xz
variable deltayz equal 0.02*yz
change_box all y delta 0 0.26574615714802 yz delta 0.0211028597807067 remap units box
Changing box ...
  triclinic box = (-0.10569727 -0.12410793 -0.19819518) to (14.599838 13.428946 16.969177) with tilt (-7.5322373 1.0153922 1.055143)
  triclinic box = (-0.10569727 -0.12410793 -0.19819518) to (14.599838 13.428946 16.969177) with tilt (-7.5322373 1.0153922 1.0762458)

# Relax atoms positions

minimize 0 1e-10 100000 100000
Generated 6 of 6 mixed pair_coeff terms from arithmetic mixing rule
For more information see https://docs.lammps.org/err0027 (src/domain.cpp:1052)
Step          Temp          E_pair         E_mol          TotEng         Press
250229   315.90634     -356.34332      367.33183      268.06082     -17681.446
Loop time of 0.0148846 on 1 procs for 34 steps with 274 atoms

Minimization stats:
  Stopping criterion = linesearch alpha is zero
  Energy initial, next-to-last, final =
  Force two-norm initial, final = 249.15002 17.453721
  Force max component initial, final = 37.683873 2.8620117
  Final line search alpha, max atom move = 3.2371335e-11 9.2647139e-11
  Iterations, force evaluations = 34 123

# Obtain new stress tensor

variable tmp equal pe
variable e1 equal -129.290234672233
variable tmp equal press
variable p1 equal -264.229172072973
variable tmp equal pxx
variable pxx1 equal 901.015096476373
variable tmp equal pyy
variable pyy1 equal -6099.79632991332
variable tmp equal pzz
variable pzz1 equal 4406.09371721803
variable tmp equal pxy
variable pxy1 equal 2744.98879806945
variable tmp equal pxz
variable pxz1 equal -1311.15402953089
variable tmp equal pyz
variable pyz1 equal -3192.18206161565

# Compute elastic constant from pressure tensor

variable C1pos equal 12.9754111201487
variable C2pos equal 47.5289192894313
variable C3pos equal -1.8771753807832
variable C4pos equal -16.2373394505938
variable C5pos equal -18.4757144634642
variable C6pos equal -9.281018176551

# Combine positive and negative

variable C12 equal 0.5*(13.4757617721429+12.9754111201487)
variable C22 equal 0.5*(9.5757549720441+47.5289192894313)
variable C32 equal 0.5*(33.784725570902+-1.8771753807832)
variable C42 equal 0.5*(13.8649817202364+-16.2373394505938)
variable C52 equal 0.5*(21.7462811261226+-18.4757144634642)
variable C62 equal 0.5*(4.59516143852541+-9.281018176551)

# Delete dir to make sure it is not reused

variable dir delete

# uzz Perturbation

variable dir equal 3
include ./input/displace_333-EXP-6-vasp.mod
variable len0 equal 17.1673723554387

# Reset box and simulation parameters

clear
box tilt large

The 'box' command has been removed and will be ignored

read_restart restart_333-EXP-6-vasp.equil
Reading restart file ...
  restart file = 10 Sep 2025, LAMMPS = 10 Sep 2025
  restoring atom style full from restart
  triclinic box = (-0.10569727 -0.12410793 -0.19819518) to (14.599838 13.1632 16.969177) with tilt (-7.5322373 1.0153922 1.055143)
  restoring pair style lj/cut from restart
  restoring bond style harmonic from restart
  restoring angle style hybrid from restart
  restoring dihedral style harmonic from restart
  274 atoms
  294 bonds
  557 angles
  696 dihedrals
Finding 1-2 1-3 1-4 neighbors ...
     4 = max # of 1-2 neighbors
     8 = max # of 1-3 neighbors
    12 = max # of special neighbors
  read_restart CPU = 0.001 seconds
include ./input/angles_333-EXP-6-vasp.mod
angle_style hybrid fourier cosine/periodic
angle_coeff 1 fourier 157.882480        0.343737        0.374972        0.281246
angle_coeff 2 fourier 221.735285        0.343737        0.374972        0.281246
angle_coeff 3 fourier 83.380072        0.343737        0.374972        0.281246
angle_coeff 4 fourier 58.020602        0.343737        0.374972        0.281246
angle_coeff 5 fourier 114.246973        0.343737        0.374972        0.281246
angle_coeff 6 fourier 32.417871        0.343737        0.374972        0.281246
angle_coeff 7 fourier 90.420412        0.343737        0.374972        0.281246
angle_coeff 8 fourier 75.498766        0.343737        0.374972        0.281246
angle_coeff 9 cosine/periodic 88.853997              -1               3

# Negative deformation

variable delta equal -0.02*17.1673723554387
variable deltaxy equal -0.02*xy
variable deltaxz equal -0.02*xz
variable deltayz equal -0.02*yz
change_box all z delta 0 -0.343347447108774 remap units box
Changing box ...
  triclinic box = (-0.10569727 -0.12410793 -0.19819518) to (14.599838 13.1632 16.62583) with tilt (-7.5322373 1.0153922 1.055143)

# Relax atoms positions

minimize 0 1e-10 100000 100000
Generated 6 of 6 mixed pair_coeff terms from arithmetic mixing rule
For more information see https://docs.lammps.org/err0027 (src/domain.cpp:1052)
Step          Temp          E_pair         E_mol          TotEng         Press
250229   315.90634     -339.09101      350.73679      268.71809      27427.591
Loop time of 0.0167123 on 1 procs for 40 steps with 274 atoms

Minimization stats:
  Stopping criterion = linesearch alpha is zero
  Energy initial, next-to-last, final =
  Force two-norm initial, final = 256.89082 13.617064
  Force max component initial, final = 32.267925 1.7621768
  Final line search alpha, max atom move = 6.401935e-11 1.1281342e-10
  Iterations, force evaluations = 40 133

# Obtain new stress tensor

variable tmp equal pxx
variable pxx1 equal 6810.67575037902
variable tmp equal pyy
variable pyy1 equal 2600.18223841942
variable tmp equal pzz
variable pzz1 equal 16672.0137013684
variable tmp equal pxy
variable pxy1 equal 1349.25609684188
variable tmp equal pxz
variable pxz1 equal -1484.22131987713
variable tmp equal pyz
variable pyz1 equal -3131.46111835999

# Compute elastic constant from pressure tensor

variable C1neg equal 16.5728921493645
variable C2neg equal -4.02902644776755
variable C3neg equal 63.2067753015351
variable C4neg equal 16.5409441668721
variable C5neg equal 17.610378011733
variable C6neg equal 2.30235467041315

# Reset box and simulation parameters

clear
box tilt large

The 'box' command has been removed and will be ignored

read_restart restart_333-EXP-6-vasp.equil
Reading restart file ...
  restart file = 10 Sep 2025, LAMMPS = 10 Sep 2025
  restoring atom style full from restart
  triclinic box = (-0.10569727 -0.12410793 -0.19819518) to (14.599838 13.1632 16.969177) with tilt (-7.5322373 1.0153922 1.055143)
  restoring pair style lj/cut from restart
  restoring bond style harmonic from restart
  restoring angle style hybrid from restart
  restoring dihedral style harmonic from restart
  274 atoms
  294 bonds
  557 angles
  696 dihedrals
Finding 1-2 1-3 1-4 neighbors ...
     4 = max # of 1-2 neighbors
     8 = max # of 1-3 neighbors
    12 = max # of special neighbors
  read_restart CPU = 0.001 seconds
include ./input/angles_333-EXP-6-vasp.mod
angle_style hybrid fourier cosine/periodic
angle_coeff 1 fourier 157.882480        0.343737        0.374972        0.281246
angle_coeff 2 fourier 221.735285        0.343737        0.374972        0.281246
angle_coeff 3 fourier 83.380072        0.343737        0.374972        0.281246
angle_coeff 4 fourier 58.020602        0.343737        0.374972        0.281246
angle_coeff 5 fourier 114.246973        0.343737        0.374972        0.281246
angle_coeff 6 fourier 32.417871        0.343737        0.374972        0.281246
angle_coeff 7 fourier 90.420412        0.343737        0.374972        0.281246
angle_coeff 8 fourier 75.498766        0.343737        0.374972        0.281246
angle_coeff 9 cosine/periodic 88.853997              -1               3

# Positive deformation

variable delta equal 0.02*17.1673723554387
variable deltaxy equal 0.02*xy
variable deltaxz equal 0.02*xz
variable deltayz equal 0.02*yz
change_box all z delta 0 0.343347447108774 remap units box
Changing box ...
  triclinic box = (-0.10569727 -0.12410793 -0.19819518) to (14.599838 13.1632 17.312525) with tilt (-7.5322373 1.0153922 1.055143)

# Relax atoms positions

minimize 0 1e-10 100000 100000
Generated 6 of 6 mixed pair_coeff terms from arithmetic mixing rule
For more information see https://docs.lammps.org/err0027 (src/domain.cpp:1052)
Step          Temp          E_pair         E_mol          TotEng         Press
250229   315.90634     -359.57602      372.09025      269.58654     -19279.897
Loop time of 0.0186715 on 1 procs for 50 steps with 274 atoms

Minimization stats:
  Stopping criterion = linesearch alpha is zero
  Energy initial, next-to-last, final =
  Force two-norm initial, final = 254.46235 10.661126
  Force max component initial, final = 28.84444 1.5472894
  Final line search alpha, max atom move = 7.0673892e-11 1.0935296e-10
  Iterations, force evaluations = 50 153

# Obtain new stress tensor

variable tmp equal pe
variable e1 equal -137.598940389932
variable tmp equal press
variable p1 equal -1872.28668244498
variable tmp equal pxx
variable pxx1 equal 209.55110161152
variable tmp equal pyy
variable pyy1 equal -3674.94468875561
variable tmp equal pzz
variable pzz1 equal -2151.46646019083
variable tmp equal pxy
variable pxy1 equal 2754.00264645874
variable tmp equal pxz
variable pxz1 equal 76.2801917120009
variable tmp equal pyz
variable pyz1 equal -3860.78942469483

# Compute elastic constant from pressure tensor

variable C1pos equal 16.432731094473
variable C2pos equal 35.4046610836427
variable C3pos equal 30.9106255062611
variable C4pos equal -12.8943026351979
variable C5pos equal -25.4128855696787
variable C6pos equal -9.32608741849745

# Combine positive and negative

variable C13 equal 0.5*(16.5728921493645+16.432731094473)
variable C23 equal 0.5*(-4.02902644776755+35.4046610836427)
variable C33 equal 0.5*(63.2067753015351+30.9106255062611)
variable C43 equal 0.5*(16.5409441668721+-12.8943026351979)
variable C53 equal 0.5*(17.610378011733+-25.4128855696787)
variable C63 equal 0.5*(2.30235467041315+-9.32608741849745)

# Delete dir to make sure it is not reused

variable dir delete

# uyz Perturbation

variable dir equal 4
include ./input/displace_333-EXP-6-vasp.mod
variable len0 equal 17.1673723554387

# Reset box and simulation parameters

clear
box tilt large

The 'box' command has been removed and will be ignored

read_restart restart_333-EXP-6-vasp.equil
Reading restart file ...
  restart file = 10 Sep 2025, LAMMPS = 10 Sep 2025
  restoring atom style full from restart
  triclinic box = (-0.10569727 -0.12410793 -0.19819518) to (14.599838 13.1632 16.969177) with tilt (-7.5322373 1.0153922 1.055143)
  restoring pair style lj/cut from restart
  restoring bond style harmonic from restart
  restoring angle style hybrid from restart
  restoring dihedral style harmonic from restart
  274 atoms
  294 bonds
  557 angles
  696 dihedrals
Finding 1-2 1-3 1-4 neighbors ...
     4 = max # of 1-2 neighbors
     8 = max # of 1-3 neighbors
    12 = max # of special neighbors
  read_restart CPU = 0.001 seconds
include ./input/angles_333-EXP-6-vasp.mod
angle_style hybrid fourier cosine/periodic
angle_coeff 1 fourier 157.882480        0.343737        0.374972        0.281246
angle_coeff 2 fourier 221.735285        0.343737        0.374972        0.281246
angle_coeff 3 fourier 83.380072        0.343737        0.374972        0.281246
angle_coeff 4 fourier 58.020602        0.343737        0.374972        0.281246
angle_coeff 5 fourier 114.246973        0.343737        0.374972        0.281246
angle_coeff 6 fourier 32.417871        0.343737        0.374972        0.281246
angle_coeff 7 fourier 90.420412        0.343737        0.374972        0.281246
angle_coeff 8 fourier 75.498766        0.343737        0.374972        0.281246
angle_coeff 9 cosine/periodic 88.853997              -1               3

# Negative deformation

variable delta equal -0.02*17.1673723554387
variable deltaxy equal -0.02*xy
variable deltaxz equal -0.02*xz
variable deltayz equal -0.02*yz
change_box all yz delta -0.343347447108774 remap units box
Changing box ...
  triclinic box = (-0.10569727 -0.12410793 -0.19819518) to (14.599838 13.1632 16.969177) with tilt (-7.5322373 1.0153922 0.71179554)

# Relax atoms positions

minimize 0 1e-10 100000 100000
Generated 6 of 6 mixed pair_coeff terms from arithmetic mixing rule
For more information see https://docs.lammps.org/err0027 (src/domain.cpp:1052)
Step          Temp          E_pair         E_mol          TotEng         Press
250229   315.90634     -353.47279      343.83016      247.42967      3795.3636
Loop time of 0.0132059 on 1 procs for 25 steps with 274 atoms

Minimization stats:
  Stopping criterion = linesearch alpha is zero
  Energy initial, next-to-last, final =
  Force two-norm initial, final = 229.1029 26.527183
  Force max component initial, final = 26.463189 4.7361314
  Final line search alpha, max atom move = 1.1436178e-11 5.416324e-11
  Iterations, force evaluations = 25 107

# Obtain new stress tensor

variable tmp equal pxx
variable pxx1 equal 3112.68712801077
variable tmp equal pyy
variable pyy1 equal -171.765949380828
variable tmp equal pzz
variable pzz1 equal 7721.04845314666
variable tmp equal pxy
variable pxy1 equal 3162.72262329434
variable tmp equal pxz
variable pxz1 equal -1549.35980526328
variable tmp equal pyz
variable pyz1 equal -609.407691551585

# Compute elastic constant from pressure tensor

variable C1neg equal -1.91705096247675
variable C2neg equal -17.8887673867688
variable C3neg equal 18.4519490604264
variable C4neg equal 29.1512113009141
variable C5neg equal 17.2846855848023
variable C6neg equal 11.3696873026755

# Reset box and simulation parameters

clear
box tilt large

The 'box' command has been removed and will be ignored

read_restart restart_333-EXP-6-vasp.equil
Reading restart file ...
  restart file = 10 Sep 2025, LAMMPS = 10 Sep 2025
  restoring atom style full from restart
  triclinic box = (-0.10569727 -0.12410793 -0.19819518) to (14.599838 13.1632 16.969177) with tilt (-7.5322373 1.0153922 1.055143)
  restoring pair style lj/cut from restart
  restoring bond style harmonic from restart
  restoring angle style hybrid from restart
  restoring dihedral style harmonic from restart
  274 atoms
  294 bonds
  557 angles
  696 dihedrals
Finding 1-2 1-3 1-4 neighbors ...
     4 = max # of 1-2 neighbors
     8 = max # of 1-3 neighbors
    12 = max # of special neighbors
  read_restart CPU = 0.001 seconds
include ./input/angles_333-EXP-6-vasp.mod
angle_style hybrid fourier cosine/periodic
angle_coeff 1 fourier 157.882480        0.343737        0.374972        0.281246
angle_coeff 2 fourier 221.735285        0.343737        0.374972        0.281246
angle_coeff 3 fourier 83.380072        0.343737        0.374972        0.281246
angle_coeff 4 fourier 58.020602        0.343737        0.374972        0.281246
angle_coeff 5 fourier 114.246973        0.343737        0.374972        0.281246
angle_coeff 6 fourier 32.417871        0.343737        0.374972        0.281246
angle_coeff 7 fourier 90.420412        0.343737        0.374972        0.281246
angle_coeff 8 fourier 75.498766        0.343737        0.374972        0.281246
angle_coeff 9 cosine/periodic 88.853997              -1               3

# Positive deformation

variable delta equal 0.02*17.1673723554387
variable deltaxy equal 0.02*xy
variable deltaxz equal 0.02*xz
variable deltayz equal 0.02*yz
change_box all yz delta 0.343347447108774 remap units box
Changing box ...
  triclinic box = (-0.10569727 -0.12410793 -0.19819518) to (14.599838 13.1632 16.969177) with tilt (-7.5322373 1.0153922 1.3984904)

# Relax atoms positions

minimize 0 1e-10 100000 100000
Generated 6 of 6 mixed pair_coeff terms from arithmetic mixing rule
For more information see https://docs.lammps.org/err0027 (src/domain.cpp:1052)
Step          Temp          E_pair         E_mol          TotEng         Press
250229   315.90634     -349.87833      353.89713      261.0911       3160.9109
Loop time of 0.0162338 on 1 procs for 39 steps with 274 atoms

Minimization stats:
  Stopping criterion = linesearch alpha is zero
  Energy initial, next-to-last, final =
  Force two-norm initial, final = 224.86636 14.824286
  Force max component initial, final = 24.348378 2.0000385
  Final line search alpha, max atom move = 3.4263054e-11 6.8527426e-11
  Iterations, force evaluations = 39 133

# Obtain new stress tensor

variable tmp equal pe
variable e1 equal -132.993361318099
variable tmp equal press
variable p1 equal 3134.21733137195
variable tmp equal pxx
variable pxx1 equal 3514.44794479802
variable tmp equal pyy
variable pyy1 equal -575.683227677811
variable tmp equal pzz
variable pzz1 equal 6463.88727699564
variable tmp equal pxy
variable pxy1 equal 1920.97377778401
variable tmp equal pxz
variable pxz1 equal -677.234679429432
variable tmp equal pyz
variable pyz1 equal -5657.03104868332

# Compute elastic constant from pressure tensor

variable C1pos equal -0.091753121459501
variable C2pos equal 19.9083537782537
variable C3pos equal -12.1661431796712
variable C4pos equal -3.91309451525545
variable C5pos equal -21.6453112139715
variable C6pos equal -5.1609430751238

# Combine positive and negative

variable C14 equal 0.5*(-1.91705096247675+-0.091753121459501)
variable C24 equal 0.5*(-17.8887673867688+19.9083537782537)
variable C34 equal 0.5*(18.4519490604264+-12.1661431796712)
variable C44 equal 0.5*(29.1512113009141+-3.91309451525545)
variable C54 equal 0.5*(17.2846855848023+-21.6453112139715)
variable C64 equal 0.5*(11.3696873026755+-5.1609430751238)

# Delete dir to make sure it is not reused

variable dir delete

# uxz Perturbation

variable dir equal 5
include ./input/displace_333-EXP-6-vasp.mod
variable len0 equal 17.1673723554387

# Reset box and simulation parameters

clear
box tilt large

The 'box' command has been removed and will be ignored

read_restart restart_333-EXP-6-vasp.equil
Reading restart file ...
  restart file = 10 Sep 2025, LAMMPS = 10 Sep 2025
  restoring atom style full from restart
  triclinic box = (-0.10569727 -0.12410793 -0.19819518) to (14.599838 13.1632 16.969177) with tilt (-7.5322373 1.0153922 1.055143)
  restoring pair style lj/cut from restart
  restoring bond style harmonic from restart
  restoring angle style hybrid from restart
  restoring dihedral style harmonic from restart
  274 atoms
  294 bonds
  557 angles
  696 dihedrals
Finding 1-2 1-3 1-4 neighbors ...
     4 = max # of 1-2 neighbors
     8 = max # of 1-3 neighbors
    12 = max # of special neighbors
  read_restart CPU = 0.001 seconds
include ./input/angles_333-EXP-6-vasp.mod
angle_style hybrid fourier cosine/periodic
angle_coeff 1 fourier 157.882480        0.343737        0.374972        0.281246
angle_coeff 2 fourier 221.735285        0.343737        0.374972        0.281246
angle_coeff 3 fourier 83.380072        0.343737        0.374972        0.281246
angle_coeff 4 fourier 58.020602        0.343737        0.374972        0.281246
angle_coeff 5 fourier 114.246973        0.343737        0.374972        0.281246
angle_coeff 6 fourier 32.417871        0.343737        0.374972        0.281246
angle_coeff 7 fourier 90.420412        0.343737        0.374972        0.281246
angle_coeff 8 fourier 75.498766        0.343737        0.374972        0.281246
angle_coeff 9 cosine/periodic 88.853997              -1               3

# Negative deformation

variable delta equal -0.02*17.1673723554387
variable deltaxy equal -0.02*xy
variable deltaxz equal -0.02*xz
variable deltayz equal -0.02*yz
change_box all xz delta -0.343347447108774 remap units box
Changing box ...
  triclinic box = (-0.10569727 -0.12410793 -0.19819518) to (14.599838 13.1632 16.969177) with tilt (-7.5322373 0.6720447 1.055143)

# Relax atoms positions

minimize 0 1e-10 100000 100000
Generated 6 of 6 mixed pair_coeff terms from arithmetic mixing rule
For more information see https://docs.lammps.org/err0027 (src/domain.cpp:1052)
Step          Temp          E_pair         E_mol          TotEng         Press
250229   315.90634     -352.36586      344.72616      249.4326       3390.8966
Loop time of 0.0171136 on 1 procs for 42 steps with 274 atoms

Minimization stats:
  Stopping criterion = linesearch alpha is zero
  Energy initial, next-to-last, final =
  Force two-norm initial, final = 228.75204 12.487519
  Force max component initial, final = 28.697396 1.504256
  Final line search alpha, max atom move = 4.3282904e-11 6.5108568e-11
  Iterations, force evaluations = 42 140

# Obtain new stress tensor

variable tmp equal pxx
variable pxx1 equal 3048.51349360782
variable tmp equal pyy
variable pyy1 equal -575.669359446072
variable tmp equal pzz
variable pzz1 equal 6053.88524745181
variable tmp equal pxy
variable pxy1 equal 2383.64895670424
variable tmp equal pxz
variable pxz1 equal 1548.10320802729
variable tmp equal pyz
variable pyz1 equal -3735.57429475829

# Compute elastic constant from pressure tensor

variable C1neg equal -2.2379191344915
variable C2neg equal -19.908284437095
variable C3neg equal 10.1161330319521
variable C4neg equal 13.5203782848806
variable C5neg equal 32.7720006512551
variable C6neg equal 7.47431896972495

# Reset box and simulation parameters

clear
box tilt large

The 'box' command has been removed and will be ignored

read_restart restart_333-EXP-6-vasp.equil
Reading restart file ...
  restart file = 10 Sep 2025, LAMMPS = 10 Sep 2025
  restoring atom style full from restart
  triclinic box = (-0.10569727 -0.12410793 -0.19819518) to (14.599838 13.1632 16.969177) with tilt (-7.5322373 1.0153922 1.055143)
  restoring pair style lj/cut from restart
  restoring bond style harmonic from restart
  restoring angle style hybrid from restart
  restoring dihedral style harmonic from restart
  274 atoms
  294 bonds
  557 angles
  696 dihedrals
Finding 1-2 1-3 1-4 neighbors ...
     4 = max # of 1-2 neighbors
     8 = max # of 1-3 neighbors
    12 = max # of special neighbors
  read_restart CPU = 0.001 seconds
include ./input/angles_333-EXP-6-vasp.mod
angle_style hybrid fourier cosine/periodic
angle_coeff 1 fourier 157.882480        0.343737        0.374972        0.281246
angle_coeff 2 fourier 221.735285        0.343737        0.374972        0.281246
angle_coeff 3 fourier 83.380072        0.343737        0.374972        0.281246
angle_coeff 4 fourier 58.020602        0.343737        0.374972        0.281246
angle_coeff 5 fourier 114.246973        0.343737        0.374972        0.281246
angle_coeff 6 fourier 32.417871        0.343737        0.374972        0.281246
angle_coeff 7 fourier 90.420412        0.343737        0.374972        0.281246
angle_coeff 8 fourier 75.498766        0.343737        0.374972        0.281246
angle_coeff 9 cosine/periodic 88.853997              -1               3

# Positive deformation

variable delta equal 0.02*17.1673723554387
variable deltaxy equal 0.02*xy
variable deltaxz equal 0.02*xz
variable deltayz equal 0.02*yz
change_box all xz delta 0.343347447108774 remap units box
Changing box ...
  triclinic box = (-0.10569727 -0.12410793 -0.19819518) to (14.599838 13.1632 16.969177) with tilt (-7.5322373 1.3587396 1.055143)

# Relax atoms positions

minimize 0 1e-10 100000 100000
Generated 6 of 6 mixed pair_coeff terms from arithmetic mixing rule
For more information see https://docs.lammps.org/err0027 (src/domain.cpp:1052)
Step          Temp          E_pair         E_mol          TotEng         Press
250229   315.90634     -351.64442      354.15991      259.5878       3536.6072
Loop time of 0.015701 on 1 procs for 35 steps with 274 atoms

Minimization stats:
  Stopping criterion = linesearch alpha is zero
  Energy initial, next-to-last, final =
  Force two-norm initial, final = 232.35225 16.469337
  Force max component initial, final = 27.479427 2.5163044
  Final line search alpha, max atom move = 3.093883e-11 7.7851515e-11
  Iterations, force evaluations = 35 126

# Obtain new stress tensor

variable tmp equal pe
variable e1 equal -135.103266155218
variable tmp equal press
variable p1 equal 3264.92284628771
variable tmp equal pxx
variable pxx1 equal 3201.93699026331
variable tmp equal pyy
variable pyy1 equal -1393.06091291001
variable tmp equal pzz
variable pzz1 equal 7985.89246150983
variable tmp equal pxy
variable pxy1 equal 1950.1497470256
variable tmp equal pxz
variable pxz1 equal -3414.59570896827
variable tmp equal pyz
variable pyz1 equal -3140.74557140408

# Compute elastic constant from pressure tensor

variable C1pos equal 1.47080165121405
variable C2pos equal 23.9952422044147
variable C3pos equal -19.7761691022422
variable C4pos equal -16.4945219016517
variable C5pos equal -7.9585060662773
variable C6pos equal -5.30682292133175

# Combine positive and negative

variable C15 equal 0.5*(-2.2379191344915+1.47080165121405)
variable C25 equal 0.5*(-19.908284437095+23.9952422044147)
variable C35 equal 0.5*(10.1161330319521+-19.7761691022422)
variable C45 equal 0.5*(13.5203782848806+-16.4945219016517)
variable C55 equal 0.5*(32.7720006512551+-7.9585060662773)
variable C65 equal 0.5*(7.47431896972495+-5.30682292133175)

# Delete dir to make sure it is not reused

variable dir delete

# uxy Perturbation

variable dir equal 6
include ./input/displace_333-EXP-6-vasp.mod
variable len0 equal 13.287307857401

# Reset box and simulation parameters

clear
box tilt large

The 'box' command has been removed and will be ignored

read_restart restart_333-EXP-6-vasp.equil
Reading restart file ...
  restart file = 10 Sep 2025, LAMMPS = 10 Sep 2025
  restoring atom style full from restart
  triclinic box = (-0.10569727 -0.12410793 -0.19819518) to (14.599838 13.1632 16.969177) with tilt (-7.5322373 1.0153922 1.055143)
  restoring pair style lj/cut from restart
  restoring bond style harmonic from restart
  restoring angle style hybrid from restart
  restoring dihedral style harmonic from restart
  274 atoms
  294 bonds
  557 angles
  696 dihedrals
Finding 1-2 1-3 1-4 neighbors ...
     4 = max # of 1-2 neighbors
     8 = max # of 1-3 neighbors
    12 = max # of special neighbors
  read_restart CPU = 0.001 seconds
include ./input/angles_333-EXP-6-vasp.mod
angle_style hybrid fourier cosine/periodic
angle_coeff 1 fourier 157.882480        0.343737        0.374972        0.281246
angle_coeff 2 fourier 221.735285        0.343737        0.374972        0.281246
angle_coeff 3 fourier 83.380072        0.343737        0.374972        0.281246
angle_coeff 4 fourier 58.020602        0.343737        0.374972        0.281246
angle_coeff 5 fourier 114.246973        0.343737        0.374972        0.281246
angle_coeff 6 fourier 32.417871        0.343737        0.374972        0.281246
angle_coeff 7 fourier 90.420412        0.343737        0.374972        0.281246
angle_coeff 8 fourier 75.498766        0.343737        0.374972        0.281246
angle_coeff 9 cosine/periodic 88.853997              -1               3

# Negative deformation

variable delta equal -0.02*13.287307857401
variable deltaxy equal -0.02*xy
variable deltaxz equal -0.02*xz
variable deltayz equal -0.02*yz
change_box all xy delta -0.26574615714802 remap units box
Changing box ...
  triclinic box = (-0.10569727 -0.12410793 -0.19819518) to (14.599838 13.1632 16.969177) with tilt (-7.7979834 1.0153922 1.055143)

# Relax atoms positions

minimize 0 1e-10 100000 100000
Generated 6 of 6 mixed pair_coeff terms from arithmetic mixing rule
For more information see https://docs.lammps.org/err0027 (src/domain.cpp:1052)
Step          Temp          E_pair         E_mol          TotEng         Press
250229   315.90634     -350.86011      349.35798      255.57018      3841.2861
Loop time of 0.0169581 on 1 procs for 42 steps with 274 atoms

Minimization stats:
  Stopping criterion = linesearch alpha is zero
  Energy initial, next-to-last, final =
  Force two-norm initial, final = 224.88184 13.326074
  Force max component initial, final = 30.345523 1.9926545
  Final line search alpha, max atom move = 6.1287203e-11 1.2212422e-10
  Iterations, force evaluations = 42 138

# Obtain new stress tensor

variable tmp equal pxx
variable pxx1 equal 2604.43466527442
variable tmp equal pyy
variable pyy1 equal -1337.81842424945
variable tmp equal pzz
variable pzz1 equal 5938.66386344371
variable tmp equal pxy
variable pxy1 equal 4388.27143611808
variable tmp equal pxz
variable pxz1 equal -744.266900634852
variable tmp equal pyz
variable pyz1 equal -3316.21870038514

# Compute elastic constant from pressure tensor

variable C1neg equal -4.4583132761585
variable C2neg equal -23.7190297611119
variable C3neg equal 9.5400261119116
variable C4neg equal 15.6171562567463
variable C5neg equal 21.3101501079444
variable C6neg equal 17.4974313667942

# Reset box and simulation parameters

clear
box tilt large

The 'box' command has been removed and will be ignored

read_restart restart_333-EXP-6-vasp.equil
Reading restart file ...
  restart file = 10 Sep 2025, LAMMPS = 10 Sep 2025
  restoring atom style full from restart
  triclinic box = (-0.10569727 -0.12410793 -0.19819518) to (14.599838 13.1632 16.969177) with tilt (-7.5322373 1.0153922 1.055143)
  restoring pair style lj/cut from restart
  restoring bond style harmonic from restart
  restoring angle style hybrid from restart
  restoring dihedral style harmonic from restart
  274 atoms
  294 bonds
  557 angles
  696 dihedrals
Finding 1-2 1-3 1-4 neighbors ...
     4 = max # of 1-2 neighbors
     8 = max # of 1-3 neighbors
    12 = max # of special neighbors
  read_restart CPU = 0.001 seconds
include ./input/angles_333-EXP-6-vasp.mod
angle_style hybrid fourier cosine/periodic
angle_coeff 1 fourier 157.882480        0.343737        0.374972        0.281246
angle_coeff 2 fourier 221.735285        0.343737        0.374972        0.281246
angle_coeff 3 fourier 83.380072        0.343737        0.374972        0.281246
angle_coeff 4 fourier 58.020602        0.343737        0.374972        0.281246
angle_coeff 5 fourier 114.246973        0.343737        0.374972        0.281246
angle_coeff 6 fourier 32.417871        0.343737        0.374972        0.281246
angle_coeff 7 fourier 90.420412        0.343737        0.374972        0.281246
angle_coeff 8 fourier 75.498766        0.343737        0.374972        0.281246
angle_coeff 9 cosine/periodic 88.853997              -1               3

# Positive deformation

variable delta equal 0.02*13.287307857401
variable deltaxy equal 0.02*xy
variable deltaxz equal 0.02*xz
variable deltayz equal 0.02*yz
change_box all xy delta 0.26574615714802 remap units box
Changing box ...
  triclinic box = (-0.10569727 -0.12410793 -0.19819518) to (14.599838 13.1632 16.969177) with tilt (-7.2664911 1.0153922 1.055143)

# Relax atoms positions

minimize 0 1e-10 100000 100000
Generated 6 of 6 mixed pair_coeff terms from arithmetic mixing rule
For more information see https://docs.lammps.org/err0027 (src/domain.cpp:1052)
Step          Temp          E_pair         E_mol          TotEng         Press
250229   315.90634     -352.72949      347.07168      251.41449      3135.512
Loop time of 0.0168947 on 1 procs for 41 steps with 274 atoms

Minimization stats:
  Stopping criterion = linesearch alpha is zero
  Energy initial, next-to-last, final =
  Force two-norm initial, final = 229.0383 14.198342
  Force max component initial, final = 24.552867 2.1231545
  Final line search alpha, max atom move = 3.2645573e-11 6.9311596e-11
  Iterations, force evaluations = 41 138

# Obtain new stress tensor

variable tmp equal pe
variable e1 equal -138.568268003798
variable tmp equal press
variable p1 equal 3584.8072567133
variable tmp equal pxx
variable pxx1 equal 3524.35937527802
variable tmp equal pyy
variable pyy1 equal -183.785345253129
variable tmp equal pzz
variable pzz1 equal 7413.84774011501
variable tmp equal pxy
variable pxy1 equal -202.072865290846
variable tmp equal pxz
variable pxz1 equal -1104.1899359973
variable tmp equal pyz
variable pyz1 equal -3723.28760082438

# Compute elastic constant from pressure tensor

variable C1pos equal -0.141310273859499
variable C2pos equal 17.9488643661303
variable C3pos equal -16.9159454952681
variable C4pos equal -13.5818117545501
variable C5pos equal -19.5105349311321
variable C6pos equal 5.45429014025048

# Combine positive and negative

variable C16 equal 0.5*(-4.4583132761585+-0.141310273859499)
variable C26 equal 0.5*(-23.7190297611119+17.9488643661303)
variable C36 equal 0.5*(9.5400261119116+-16.9159454952681)
variable C46 equal 0.5*(15.6171562567463+-13.5818117545501)
variable C56 equal 0.5*(21.3101501079444+-19.5105349311321)
variable C66 equal 0.5*(17.4974313667942+5.45429014025048)

# Delete dir to make sure it is not reused

variable dir delete

# Output final values

variable C11all equal 53.5800494991506
variable C22all equal 28.5523371307377
variable C33all equal 47.0587004038981

variable C12all equal 0.5*(13.2255864461458+12.8262973175694)
variable C13all equal 0.5*(16.5028116219187+15.8847395590098)
variable C23all equal 0.5*(15.6878173179376+15.9537750950594)

variable C44all equal 12.6190583928293
variable C55all equal 12.4067472924889
variable C66all equal 11.4758607535223

variable C14all equal 0.5*(-1.00440204196813+-0.352038084909349)
variable C15all equal 0.5*(-0.383558741638725+0.368993704146549)
variable C16all equal 0.5*(-2.299811775009+-1.69455307215478)

variable C24all equal 0.5*(1.00979319574245+-1.1861788651787)
variable C25all equal 0.5*(2.04347888365985+1.6352833313292)
variable C26all equal 0.5*(-2.8850826974908+-2.34292836901279)

variable C34all equal 0.5*(3.1429029403776+1.8233207658371)
variable C35all equal 0.5*(-4.83001803514505+-3.90125377897285)
variable C36all equal 0.5*(-3.68795969167825+-3.51186637404215)

variable C45all equal 0.5*(-1.48707180838555+-2.1803128145846)
variable C46all equal 0.5*(1.0176722510981+3.10437211377585)
variable C56all equal 0.5*(0.89980758840615+1.0837480241966)

# Average moduli for cubic crystals

variable C11cubic equal (53.5800494991506+28.5523371307377+47.0587004038981)/3.0
variable C12cubic equal (13.0259418818576+16.1937755904642+15.8207962064985)/3.0
variable C44cubic equal (12.6190583928293+12.4067472924889+11.4758607535223)/3.0

variable bulkmodulus equal (43.0636956779288+2*15.0135045596068)/3.0
variable shearmodulus1 equal 12.1672221462802
variable shearmodulus2 equal (43.0636956779288-15.0135045596068)/2.0
variable poissonratio equal 1.0/(1.0+43.0636956779288/15.0135045596068)

Elastic Constant 1 1 = 53.5800494991506
Elastic Constant 2 2 = 28.5523371307377
Elastic Constant 3 3 = 47.0587004038981

Elastic Constant 1 2 = 13.0259418818576
Elastic Constant 1 3 = 16.1937755904642
Elastic Constant 2 3 = 15.8207962064985

Elastic Constant 4 4 = 12.6190583928293
Elastic Constant 5 5 = 12.4067472924889
Elastic Constant 6 6 = 11.4758607535223

Elastic Constant 1 4 = -0.67822006343874
Elastic Constant 1 5 = -0.00728251874608801
Elastic Constant 1 6 = -1.99718242358189

Elastic Constant 2 4 = -0.088192834718125
Elastic Constant 2 5 = 1.83938110749452
Elastic Constant 2 6 = -2.61400553325179

Elastic Constant 3 4 = 2.48311185310735
Elastic Constant 3 5 = -4.36563590705895
Elastic Constant 3 6 = -3.5999130328602

Elastic Constant 4 5 = -1.83369231148508
Elastic Constant 4 6 = 2.06102218243698
Elastic Constant 5 6 = 0.991777806301375

Bulk Modulus = 24.3635682657141 GPa
Shear Modulus 1 = 12.1672221462802 GPa
Shear Modulus 2 = 14.025095559161 GPa
Poisson Ratio = 0.258509440851171

variable rho equal density
density (g/cm^3) = 1.5106229389128
