units           real
atom_style      full
boundary        p p p

pair_style      lj/cut 5.000
bond_style      harmonic
angle_style     hybrid cosine/periodic fourier
dihedral_style  harmonic

special_bonds   lj/coul 0.0 0.0 1.0
pair_modify     tail yes mix arithmetic
dielectric      1.0
box tilt        large

The 'box' command has been removed and will be ignored

read_data       ./dat/data.333U-50C-26-vasp
Reading data file ...
  triclinic box = (0 0 0) to (15.526412 14.104294 17.464155) with tilt (-6.934611 2.088 0.879508)
  reading atoms ...
  365 atoms
  scanning bonds ...
  scanning angles ...
  scanning dihedrals ...
  triclinic box = (0 0 0) to (15.526412 14.104294 17.464155) with tilt (-6.934611 2.088 0.879508)
  reading bonds ...
  390 bonds
  reading angles ...
  739 angles
  reading dihedrals ...
  924 dihedrals
Finding 1-2 1-3 1-4 neighbors ...
     4 = max # of 1-2 neighbors
     8 = max # of 1-3 neighbors
    12 = max # of special neighbors

#### Atom Groupings ####
group           fram     id   1:365
365 atoms in group fram
#### END Atom Groupings ####

compute am all property/atom mass
dump        atom_pos all extxyz 100 ./output/333U-50C-26-vasp.lammpstrj
dump_modify atom_pos element Si C O H mass yes
thermo          1000
thermo_style    custom step temp pe ke etotal press vol density

variable up equal 2e-2
variable cfac equal 1.0e-4
variable cunits string GPa

# Define minimization parameters
variable etol equal 0.0
variable ftol equal 1.0e-10
variable maxiter equal 100000
variable maxeval equal 100000
variable dmax equal 1.0e-2

variable temp equal 300.0
variable thermal_damp index 100.0
variable pressure_damp index 500.0

fix relax all box/relax aniso 0.0 vmax 0.001
unfix relax
minimize 0 1e-10 100000 100000
Generated 6 of 6 mixed pair_coeff terms from arithmetic mixing rule
For more information see https://docs.lammps.org/err0027 (src/domain.cpp:1052)
Step          Temp          PotEng         KinEng         TotEng         Press          Volume        Density
0   0              1478.8284      0              1478.8284      107779.68      3824.4592      1.7286617
Loop time of 0.0553398 on 1 procs for 70 steps with 365 atoms

Minimization stats:
  Stopping criterion = linesearch alpha is zero
  Energy initial, next-to-last, final =
  Force two-norm initial, final = 898.21958 22.837247
  Force max component initial, final = 94.475368 5.9889089
  Final line search alpha, max atom move = 1.2323688e-11 7.3805446e-11
  Iterations, force evaluations = 70 192

# Generating the full routine as described in the paper for UFF
fix nvt_relax   all nvt temp 300 300 100.0
run 100000      # 100 picoseconds
Generated 6 of 6 mixed pair_coeff terms from arithmetic mixing rule
For more information see https://docs.lammps.org/err0027 (src/domain.cpp:1052)
Step          Temp          PotEng         KinEng         TotEng         Press          Volume        Density
70   0              266.04551      0              266.04551      17096.104      3824.4592      1.7286617
Averages over the last 51 of 102 rows, steps 51000 to 100070:
Temp PotEng KinEng TotEng Press Volume Density
299.776 420.179 325.261 745.441 14797.9 3824.46 1.72866
Loop time of 24.8858 on 1 procs for 100000 steps with 365 atoms

unfix           nvt_relax

fix npt_relax   all npt temp 300 300 100.0 iso 0 0 500.0
run 100000      # 100 picoseconds
Generated 6 of 6 mixed pair_coeff terms from arithmetic mixing rule
For more information see https://docs.lammps.org/err0027 (src/domain.cpp:1052)
Step          Temp          PotEng         KinEng         TotEng         Press          Volume        Density
100070   313.36891      419.38461      340.00992      759.39454      12402.026      3824.4592      1.7286617
Averages over the last 51 of 102 rows, steps 151000 to 200070:
Temp PotEng KinEng TotEng Press Volume Density
301.221 409.308 326.829 736.138 -1075.17 3965.9 1.66706
Loop time of 24.8851 on 1 procs for 100000 steps with 365 atoms

unfix           npt_relax

# run 100000      # 100 picoseconds
# unfix           nvt_heat
#
# run 100000      # 100 picoseconds
# unfix           npt_heat
#
# run 700000      # 700 picoseconds
# unfix           cooling_npt
#
# run 100000      # 100 picoseconds
# unfix           npt_final

# density computation
variable rho equal density
fix integrate  all npt temp 300 300 100.0 iso 0 0 500.0
fix rho50k all ave/time 10 5000 50000 v_rho mode scalar ave one
run 50000
Generated 6 of 6 mixed pair_coeff terms from arithmetic mixing rule
For more information see https://docs.lammps.org/err0027 (src/domain.cpp:1052)
Step          Temp          PotEng         KinEng         TotEng         Press          Volume        Density
200070   299.15042      408.35131      324.58266      732.93397     -1929.0475      3959.5468      1.6696851
Averages over the last 26 of 52 rows, steps 226000 to 250070:
Temp PotEng KinEng TotEng Press Volume Density
303.335 412.952 329.123 742.075 553.833 3955.51 1.67145
Loop time of 12.8095 on 1 procs for 50000 steps with 365 atoms

unfix integrate
unfix rho50k

# Compute initial state
fix 3 all box/relax  aniso 0.0
minimize 0 1e-10 100000 100000
Generated 6 of 6 mixed pair_coeff terms from arithmetic mixing rule
 (src/min.cpp:222)
For more information see https://docs.lammps.org/err0027 (src/domain.cpp:1052)
Step          Temp          PotEng         KinEng         TotEng         Press          Volume        Density
250070   300.35863      429.16289      325.89357      755.05646      2053.9418      3958.2923      1.6702143
Loop time of 0.0929038 on 1 procs for 285 steps with 365 atoms

Minimization stats:
  Stopping criterion = linesearch alpha is zero
  Energy initial, next-to-last, final =
  Force two-norm initial, final = 744.2224 132.12984
  Force max component initial, final = 348.83664 18.562301
  Final line search alpha, max atom move = 4.0081798e-13 7.4401039e-12
  Iterations, force evaluations = 285 314

variable tmp equal pxx
variable pxx0 equal 3483.60553750964
variable tmp equal pyy
variable pyy0 equal 3356.78900932421
variable tmp equal pzz
variable pzz0 equal 3678.94653493225
variable tmp equal pyz
variable pyz0 equal -2665.89637556696
variable tmp equal pxz
variable pxz0 equal 54.6099565590366
variable tmp equal pxy
variable pxy0 equal 226.601211735752

variable tmp equal lx
variable lx0 equal 15.6972227834823
variable tmp equal ly
variable ly0 equal 14.2595986237947
variable tmp equal lz
variable lz0 equal 17.703749615894

# These formulas define the derivatives w.r.t. strain components
# Constants uses $, variables use v_
variable d1 equal -(v_pxx1-3483.60553750964)/(v_delta/v_len0)*0.0001
variable d2 equal -(v_pyy1-3356.78900932421)/(v_delta/v_len0)*0.0001
variable d3 equal -(v_pzz1-3678.94653493225)/(v_delta/v_len0)*0.0001
variable d4 equal -(v_pyz1--2665.89637556696)/(v_delta/v_len0)*0.0001
variable d5 equal -(v_pxz1-54.6099565590366)/(v_delta/v_len0)*0.0001
variable d6 equal -(v_pxy1-226.601211735752)/(v_delta/v_len0)*0.0001

# Write restart
unfix 3
write_restart restart_333U-50C-26-vasp.equil
System init for write_restart ...
Generated 6 of 6 mixed pair_coeff terms from arithmetic mixing rule

# uxx Perturbation

variable dir equal 1
include ./input/displace_333U-50C-26-vasp.mod
variable len0 equal 15.6972227834823

# Reset box and simulation parameters

clear
box tilt large

The 'box' command has been removed and will be ignored

read_restart restart_333U-50C-26-vasp.equil
Reading restart file ...
  restart file = 10 Sep 2025, LAMMPS = 10 Sep 2025
  restoring atom style full from restart
  triclinic box = (-0.085405392 -0.077652312 -0.11979731) to (15.611817 14.181946 17.583952) with tilt (-7.0109691 2.1166457 0.89157417)
  restoring pair style lj/cut from restart
  restoring bond style harmonic from restart
  restoring angle style hybrid from restart
  restoring dihedral style harmonic from restart
  365 atoms
  390 bonds
  739 angles
  924 dihedrals
Finding 1-2 1-3 1-4 neighbors ...
     4 = max # of 1-2 neighbors
     8 = max # of 1-3 neighbors
    12 = max # of special neighbors
  read_restart CPU = 0.002 seconds
include ./input/angles_333U-50C-26-vasp.mod
angle_style hybrid fourier cosine/periodic
angle_coeff 1 fourier 157.882480        0.343737        0.374972        0.281246
angle_coeff 2 fourier 221.735285        0.343737        0.374972        0.281246
angle_coeff 3 fourier 83.380072        0.343737        0.374972        0.281246
angle_coeff 4 fourier 32.417871        0.343737        0.374972        0.281246
angle_coeff 5 fourier 114.246973        0.343737        0.374972        0.281246
angle_coeff 6 fourier 58.020602        0.343737        0.374972        0.281246
angle_coeff 7 fourier 90.420412        0.343737        0.374972        0.281246
angle_coeff 8 fourier 75.498766        0.343737        0.374972        0.281246
angle_coeff 9 cosine/periodic 88.853997              -1               3

# Negative deformation

variable delta equal -0.02*15.6972227834823
variable deltaxy equal -0.02*xy
variable deltaxz equal -0.02*xz
variable deltayz equal -0.02*yz
change_box all x delta 0 -0.313944455669646 xy delta 0.140219382086268 xz delta -0.0423329147021269 remap units box
Changing box ...
  triclinic box = (-0.085405392 -0.077652312 -0.11979731) to (15.297873 14.181946 17.583952) with tilt (-7.0109691 2.1166457 0.89157417)
  triclinic box = (-0.085405392 -0.077652312 -0.11979731) to (15.297873 14.181946 17.583952) with tilt (-6.8707497 2.1166457 0.89157417)
  triclinic box = (-0.085405392 -0.077652312 -0.11979731) to (15.297873 14.181946 17.583952) with tilt (-6.8707497 2.0743128 0.89157417)

# Relax atoms positions

minimize 0 1e-10 100000 100000
Generated 6 of 6 mixed pair_coeff terms from arithmetic mixing rule
For more information see https://docs.lammps.org/err0027 (src/domain.cpp:1052)
Step          Temp          E_pair         E_mol          TotEng         Press
250355   300.35863     -402.90936      628.61818      551.60239      29838.41
Loop time of 0.0426543 on 1 procs for 52 steps with 365 atoms

Minimization stats:
  Stopping criterion = linesearch alpha is zero
  Energy initial, next-to-last, final =
  Force two-norm initial, final = 217.52807 13.691392
  Force max component initial, final = 25.485074 2.2312866
  Final line search alpha, max atom move = 5.7243997e-11 1.2772776e-10
  Iterations, force evaluations = 52 157

# Obtain new stress tensor

variable tmp equal pxx
variable pxx1 equal 15644.3800285157
variable tmp equal pyy
variable pyy1 equal 3091.43808609292
variable tmp equal pzz
variable pzz1 equal 7237.999862732
variable tmp equal pxy
variable pxy1 equal 909.535281061427
variable tmp equal pxz
variable pxz1 equal 1190.80048668031
variable tmp equal pyz
variable pyz1 equal -1389.85127957027

# Compute elastic constant from pressure tensor

variable C1neg equal 60.8038724550303
variable C2neg equal -1.32675461615645
variable C3neg equal 17.7952666389988
variable C4neg equal 6.38022547998345
variable C5neg equal 5.68095265060637
variable C6neg equal 3.41467034662837

# Reset box and simulation parameters

clear
box tilt large

The 'box' command has been removed and will be ignored

read_restart restart_333U-50C-26-vasp.equil
Reading restart file ...
  restart file = 10 Sep 2025, LAMMPS = 10 Sep 2025
  restoring atom style full from restart
  triclinic box = (-0.085405392 -0.077652312 -0.11979731) to (15.611817 14.181946 17.583952) with tilt (-7.0109691 2.1166457 0.89157417)
  restoring pair style lj/cut from restart
  restoring bond style harmonic from restart
  restoring angle style hybrid from restart
  restoring dihedral style harmonic from restart
  365 atoms
  390 bonds
  739 angles
  924 dihedrals
Finding 1-2 1-3 1-4 neighbors ...
     4 = max # of 1-2 neighbors
     8 = max # of 1-3 neighbors
    12 = max # of special neighbors
  read_restart CPU = 0.002 seconds
include ./input/angles_333U-50C-26-vasp.mod
angle_style hybrid fourier cosine/periodic
angle_coeff 1 fourier 157.882480        0.343737        0.374972        0.281246
angle_coeff 2 fourier 221.735285        0.343737        0.374972        0.281246
angle_coeff 3 fourier 83.380072        0.343737        0.374972        0.281246
angle_coeff 4 fourier 32.417871        0.343737        0.374972        0.281246
angle_coeff 5 fourier 114.246973        0.343737        0.374972        0.281246
angle_coeff 6 fourier 58.020602        0.343737        0.374972        0.281246
angle_coeff 7 fourier 90.420412        0.343737        0.374972        0.281246
angle_coeff 8 fourier 75.498766        0.343737        0.374972        0.281246
angle_coeff 9 cosine/periodic 88.853997              -1               3

# Positive deformation

variable delta equal 0.02*15.6972227834823
variable deltaxy equal 0.02*xy
variable deltaxz equal 0.02*xz
variable deltayz equal 0.02*yz
change_box all x delta 0 0.313944455669646 xy delta -0.140219382086268 xz delta 0.0423329147021269 remap units box
Changing box ...
  triclinic box = (-0.085405392 -0.077652312 -0.11979731) to (15.925762 14.181946 17.583952) with tilt (-7.0109691 2.1166457 0.89157417)
  triclinic box = (-0.085405392 -0.077652312 -0.11979731) to (15.925762 14.181946 17.583952) with tilt (-7.1511885 2.1166457 0.89157417)
  triclinic box = (-0.085405392 -0.077652312 -0.11979731) to (15.925762 14.181946 17.583952) with tilt (-7.1511885 2.1589786 0.89157417)

# Relax atoms positions

minimize 0 1e-10 100000 100000
Generated 6 of 6 mixed pair_coeff terms from arithmetic mixing rule
For more information see https://docs.lammps.org/err0027 (src/domain.cpp:1052)
Step          Temp          E_pair         E_mol          TotEng         Press
250355   300.35863     -444.87489      671.20959      552.22827     -21819.09
Loop time of 0.0401152 on 1 procs for 55 steps with 365 atoms

Minimization stats:
  Stopping criterion = linesearch alpha is zero
  Energy initial, next-to-last, final =
  Force two-norm initial, final = 220.66541 9.8243306
  Force max component initial, final = 25.946299 1.6746403
  Final line search alpha, max atom move = 9.2761744e-11 1.5534255e-10
  Iterations, force evaluations = 55 163

# Obtain new stress tensor

variable tmp equal pe
variable e1 equal 90.7112258713792
variable tmp equal press
variable p1 equal -6697.11627796959
variable tmp equal pxx
variable pxx1 equal -11755.9760147233
variable tmp equal pyy
variable pyy1 equal -6270.22588144707
variable tmp equal pzz
variable pzz1 equal -2065.14693773845
variable tmp equal pxy
variable pxy1 equal 2135.683111804
variable tmp equal pxz
variable pxz1 equal 934.49148993707
variable tmp equal pyz
variable pyz1 equal -1242.66648955074

# Compute elastic constant from pressure tensor

variable C1pos equal 76.1979077611647
variable C2pos equal 48.1350744538564
variable C3pos equal 28.7204673633535
variable C4pos equal -7.1161494300811
variable C5pos equal -4.39940766689017
variable C6pos equal -9.54540950034124

# Combine positive and negative

variable C11 equal 0.5*(60.8038724550303+76.1979077611647)
variable C21 equal 0.5*(-1.32675461615645+48.1350744538564)
variable C31 equal 0.5*(17.7952666389988+28.7204673633535)
variable C41 equal 0.5*(6.38022547998345+-7.1161494300811)
variable C51 equal 0.5*(5.68095265060637+-4.39940766689017)
variable C61 equal 0.5*(3.41467034662837+-9.54540950034124)

# Delete dir to make sure it is not reused

variable dir delete

# uyy Perturbation

variable dir equal 2
include ./input/displace_333U-50C-26-vasp.mod
variable len0 equal 14.2595986237947

# Reset box and simulation parameters

clear
box tilt large

The 'box' command has been removed and will be ignored

read_restart restart_333U-50C-26-vasp.equil
Reading restart file ...
  restart file = 10 Sep 2025, LAMMPS = 10 Sep 2025
  restoring atom style full from restart
  triclinic box = (-0.085405392 -0.077652312 -0.11979731) to (15.611817 14.181946 17.583952) with tilt (-7.0109691 2.1166457 0.89157417)
  restoring pair style lj/cut from restart
  restoring bond style harmonic from restart
  restoring angle style hybrid from restart
  restoring dihedral style harmonic from restart
  365 atoms
  390 bonds
  739 angles
  924 dihedrals
Finding 1-2 1-3 1-4 neighbors ...
     4 = max # of 1-2 neighbors
     8 = max # of 1-3 neighbors
    12 = max # of special neighbors
  read_restart CPU = 0.002 seconds
include ./input/angles_333U-50C-26-vasp.mod
angle_style hybrid fourier cosine/periodic
angle_coeff 1 fourier 157.882480        0.343737        0.374972        0.281246
angle_coeff 2 fourier 221.735285        0.343737        0.374972        0.281246
angle_coeff 3 fourier 83.380072        0.343737        0.374972        0.281246
angle_coeff 4 fourier 32.417871        0.343737        0.374972        0.281246
angle_coeff 5 fourier 114.246973        0.343737        0.374972        0.281246
angle_coeff 6 fourier 58.020602        0.343737        0.374972        0.281246
angle_coeff 7 fourier 90.420412        0.343737        0.374972        0.281246
angle_coeff 8 fourier 75.498766        0.343737        0.374972        0.281246
angle_coeff 9 cosine/periodic 88.853997              -1               3

# Negative deformation

variable delta equal -0.02*14.2595986237947
variable deltaxy equal -0.02*xy
variable deltaxz equal -0.02*xz
variable deltayz equal -0.02*yz
change_box all y delta 0 -0.285191972475894 yz delta -0.017831483306436 remap units box
Changing box ...
  triclinic box = (-0.085405392 -0.077652312 -0.11979731) to (15.611817 13.896754 17.583952) with tilt (-7.0109691 2.1166457 0.89157417)
  triclinic box = (-0.085405392 -0.077652312 -0.11979731) to (15.611817 13.896754 17.583952) with tilt (-7.0109691 2.1166457 0.87374268)

# Relax atoms positions

minimize 0 1e-10 100000 100000
Generated 6 of 6 mixed pair_coeff terms from arithmetic mixing rule
For more information see https://docs.lammps.org/err0027 (src/domain.cpp:1052)
Step          Temp          E_pair         E_mol          TotEng         Press
250355   300.35863     -402.65525      629.11227      552.35059      29974.114
Loop time of 0.0358525 on 1 procs for 43 steps with 365 atoms

Minimization stats:
  Stopping criterion = linesearch alpha is zero
  Energy initial, next-to-last, final =
  Force two-norm initial, final = 222.11817 14.42469
  Force max component initial, final = 23.993482 3.0576795
  Final line search alpha, max atom move = 3.3918706e-11 1.0371253e-10
  Iterations, force evaluations = 43 141

# Obtain new stress tensor

variable tmp equal pxx
variable pxx1 equal 7937.00566388399
variable tmp equal pyy
variable pyy1 equal 11496.9303825421
variable tmp equal pzz
variable pzz1 equal 8561.18777049605
variable tmp equal pxy
variable pxy1 equal 1419.7055671734
variable tmp equal pxz
variable pxz1 equal 50.7623804359112
variable tmp equal pyz
variable pyz1 equal -1215.12491392762

# Compute elastic constant from pressure tensor

variable C1neg equal 22.2670006318717
variable C2neg equal 40.7007068660894
variable C3neg equal 24.411206177819
variable C4neg equal 7.2538573081967
variable C5neg equal -0.019237880615627
variable C6neg equal 5.96552177718824

# Reset box and simulation parameters

clear
box tilt large

The 'box' command has been removed and will be ignored

read_restart restart_333U-50C-26-vasp.equil
Reading restart file ...
  restart file = 10 Sep 2025, LAMMPS = 10 Sep 2025
  restoring atom style full from restart
  triclinic box = (-0.085405392 -0.077652312 -0.11979731) to (15.611817 14.181946 17.583952) with tilt (-7.0109691 2.1166457 0.89157417)
  restoring pair style lj/cut from restart
  restoring bond style harmonic from restart
  restoring angle style hybrid from restart
  restoring dihedral style harmonic from restart
  365 atoms
  390 bonds
  739 angles
  924 dihedrals
Finding 1-2 1-3 1-4 neighbors ...
     4 = max # of 1-2 neighbors
     8 = max # of 1-3 neighbors
    12 = max # of special neighbors
  read_restart CPU = 0.001 seconds
include ./input/angles_333U-50C-26-vasp.mod
angle_style hybrid fourier cosine/periodic
angle_coeff 1 fourier 157.882480        0.343737        0.374972        0.281246
angle_coeff 2 fourier 221.735285        0.343737        0.374972        0.281246
angle_coeff 3 fourier 83.380072        0.343737        0.374972        0.281246
angle_coeff 4 fourier 32.417871        0.343737        0.374972        0.281246
angle_coeff 5 fourier 114.246973        0.343737        0.374972        0.281246
angle_coeff 6 fourier 58.020602        0.343737        0.374972        0.281246
angle_coeff 7 fourier 90.420412        0.343737        0.374972        0.281246
angle_coeff 8 fourier 75.498766        0.343737        0.374972        0.281246
angle_coeff 9 cosine/periodic 88.853997              -1               3

# Positive deformation

variable delta equal 0.02*14.2595986237947
variable deltaxy equal 0.02*xy
variable deltaxz equal 0.02*xz
variable deltayz equal 0.02*yz
change_box all y delta 0 0.285191972475894 yz delta 0.017831483306436 remap units box
Changing box ...
  triclinic box = (-0.085405392 -0.077652312 -0.11979731) to (15.611817 14.467138 17.583952) with tilt (-7.0109691 2.1166457 0.89157417)
  triclinic box = (-0.085405392 -0.077652312 -0.11979731) to (15.611817 14.467138 17.583952) with tilt (-7.0109691 2.1166457 0.90940565)

# Relax atoms positions

minimize 0 1e-10 100000 100000
Generated 6 of 6 mixed pair_coeff terms from arithmetic mixing rule
For more information see https://docs.lammps.org/err0027 (src/domain.cpp:1052)
Step          Temp          E_pair         E_mol          TotEng         Press
250355   300.35863     -446.03647      671.64058      551.49768     -21999.165
Loop time of 0.0384351 on 1 procs for 49 steps with 365 atoms

Minimization stats:
  Stopping criterion = linesearch alpha is zero
  Energy initial, next-to-last, final =
  Force two-norm initial, final = 217.52968 13.467704
  Force max component initial, final = 29.141608 1.6516352
  Final line search alpha, max atom move = 3.6956599e-11 6.1038821e-11
  Iterations, force evaluations = 49 153

# Obtain new stress tensor

variable tmp equal pe
variable e1 equal 93.3122964639856
variable tmp equal press
variable p1 equal -6580.98679400623
variable tmp equal pxx
variable pxx1 equal -2686.44654893883
variable tmp equal pyy
variable pyy1 equal -13720.7565308187
variable tmp equal pzz
variable pzz1 equal -3335.75730226113
variable tmp equal pxy
variable pxy1 equal 2134.02829593394
variable tmp equal pxz
variable pxz1 equal 1847.85647977719
variable tmp equal pyz
variable pyz1 equal -1362.94334211605

# Compute elastic constant from pressure tensor

variable C1pos equal 30.8502604322423
variable C2pos equal 85.3877277007145
variable C3pos equal 35.0735191859669
variable C4pos equal -6.51476516725455
variable C5pos equal -8.96623261609077
variable C6pos equal -9.53713542099094

# Combine positive and negative

variable C12 equal 0.5*(22.2670006318717+30.8502604322423)
variable C22 equal 0.5*(40.7007068660894+85.3877277007145)
variable C32 equal 0.5*(24.411206177819+35.0735191859669)
variable C42 equal 0.5*(7.2538573081967+-6.51476516725455)
variable C52 equal 0.5*(-0.019237880615627+-8.96623261609077)
variable C62 equal 0.5*(5.96552177718824+-9.53713542099094)

# Delete dir to make sure it is not reused

variable dir delete

# uzz Perturbation

variable dir equal 3
include ./input/displace_333U-50C-26-vasp.mod
variable len0 equal 17.703749615894

# Reset box and simulation parameters

clear
box tilt large

The 'box' command has been removed and will be ignored

read_restart restart_333U-50C-26-vasp.equil
Reading restart file ...
  restart file = 10 Sep 2025, LAMMPS = 10 Sep 2025
  restoring atom style full from restart
  triclinic box = (-0.085405392 -0.077652312 -0.11979731) to (15.611817 14.181946 17.583952) with tilt (-7.0109691 2.1166457 0.89157417)
  restoring pair style lj/cut from restart
  restoring bond style harmonic from restart
  restoring angle style hybrid from restart
  restoring dihedral style harmonic from restart
  365 atoms
  390 bonds
  739 angles
  924 dihedrals
Finding 1-2 1-3 1-4 neighbors ...
     4 = max # of 1-2 neighbors
     8 = max # of 1-3 neighbors
    12 = max # of special neighbors
  read_restart CPU = 0.001 seconds
include ./input/angles_333U-50C-26-vasp.mod
angle_style hybrid fourier cosine/periodic
angle_coeff 1 fourier 157.882480        0.343737        0.374972        0.281246
angle_coeff 2 fourier 221.735285        0.343737        0.374972        0.281246
angle_coeff 3 fourier 83.380072        0.343737        0.374972        0.281246
angle_coeff 4 fourier 32.417871        0.343737        0.374972        0.281246
angle_coeff 5 fourier 114.246973        0.343737        0.374972        0.281246
angle_coeff 6 fourier 58.020602        0.343737        0.374972        0.281246
angle_coeff 7 fourier 90.420412        0.343737        0.374972        0.281246
angle_coeff 8 fourier 75.498766        0.343737        0.374972        0.281246
angle_coeff 9 cosine/periodic 88.853997              -1               3

# Negative deformation

variable delta equal -0.02*17.703749615894
variable deltaxy equal -0.02*xy
variable deltaxz equal -0.02*xz
variable deltayz equal -0.02*yz
change_box all z delta 0 -0.35407499231788 remap units box
Changing box ...
  triclinic box = (-0.085405392 -0.077652312 -0.11979731) to (15.611817 14.181946 17.229877) with tilt (-7.0109691 2.1166457 0.89157417)

# Relax atoms positions

minimize 0 1e-10 100000 100000
Generated 6 of 6 mixed pair_coeff terms from arithmetic mixing rule
For more information see https://docs.lammps.org/err0027 (src/domain.cpp:1052)
Step          Temp          E_pair         E_mol          TotEng         Press
250355   300.35863     -401.60034      627.67713      551.97037      30788.332
Loop time of 0.0286598 on 1 procs for 26 steps with 365 atoms

Minimization stats:
  Stopping criterion = linesearch alpha is zero
  Energy initial, next-to-last, final =
  Force two-norm initial, final = 220.84475 24.35944
  Force max component initial, final = 23.924162 2.9827761
  Final line search alpha, max atom move = 1.3806821e-11 4.1182657e-11
  Iterations, force evaluations = 26 109

# Obtain new stress tensor

variable tmp equal pxx
variable pxx1 equal 8267.50499810259
variable tmp equal pyy
variable pyy1 equal 4728.86467710744
variable tmp equal pzz
variable pzz1 equal 16594.5331786229
variable tmp equal pxy
variable pxy1 equal 1764.62709877222
variable tmp equal pxz
variable pxz1 equal 889.818610285804
variable tmp equal pyz
variable pyz1 equal -2313.70507550258

# Compute elastic constant from pressure tensor

variable C1neg equal 23.9194973029647
variable C2neg equal 6.86037833891615
variable C3neg equal 64.5779332184533
variable C4neg equal 1.7609565003219
variable C5neg equal 4.17604326863384
variable C6neg equal 7.69012943518234

# Reset box and simulation parameters

clear
box tilt large

The 'box' command has been removed and will be ignored

read_restart restart_333U-50C-26-vasp.equil
Reading restart file ...
  restart file = 10 Sep 2025, LAMMPS = 10 Sep 2025
  restoring atom style full from restart
  triclinic box = (-0.085405392 -0.077652312 -0.11979731) to (15.611817 14.181946 17.583952) with tilt (-7.0109691 2.1166457 0.89157417)
  restoring pair style lj/cut from restart
  restoring bond style harmonic from restart
  restoring angle style hybrid from restart
  restoring dihedral style harmonic from restart
  365 atoms
  390 bonds
  739 angles
  924 dihedrals
Finding 1-2 1-3 1-4 neighbors ...
     4 = max # of 1-2 neighbors
     8 = max # of 1-3 neighbors
    12 = max # of special neighbors
  read_restart CPU = 0.001 seconds
include ./input/angles_333U-50C-26-vasp.mod
angle_style hybrid fourier cosine/periodic
angle_coeff 1 fourier 157.882480        0.343737        0.374972        0.281246
angle_coeff 2 fourier 221.735285        0.343737        0.374972        0.281246
angle_coeff 3 fourier 83.380072        0.343737        0.374972        0.281246
angle_coeff 4 fourier 32.417871        0.343737        0.374972        0.281246
angle_coeff 5 fourier 114.246973        0.343737        0.374972        0.281246
angle_coeff 6 fourier 58.020602        0.343737        0.374972        0.281246
angle_coeff 7 fourier 90.420412        0.343737        0.374972        0.281246
angle_coeff 8 fourier 75.498766        0.343737        0.374972        0.281246
angle_coeff 9 cosine/periodic 88.853997              -1               3

# Positive deformation

variable delta equal 0.02*17.703749615894
variable deltaxy equal 0.02*xy
variable deltaxz equal 0.02*xz
variable deltayz equal 0.02*yz
change_box all z delta 0 0.35407499231788 remap units box
Changing box ...
  triclinic box = (-0.085405392 -0.077652312 -0.11979731) to (15.611817 14.181946 17.938027) with tilt (-7.0109691 2.1166457 0.89157417)

# Relax atoms positions

minimize 0 1e-10 100000 100000
Generated 6 of 6 mixed pair_coeff terms from arithmetic mixing rule
For more information see https://docs.lammps.org/err0027 (src/domain.cpp:1052)
Step          Temp          E_pair         E_mol          TotEng         Press
250355   300.35863     -447.67127      672.9718       551.19411     -22786.286
Loop time of 0.0285844 on 1 procs for 42 steps with 365 atoms

Minimization stats:
  Stopping criterion = linesearch alpha is zero
  Energy initial, next-to-last, final =
  Force two-norm initial, final = 219.7943 17.298178
  Force max component initial, final = 23.42175 2.4094526
  Final line search alpha, max atom move = 2.2115888e-11 5.3287184e-11
  Iterations, force evaluations = 42 139

# Obtain new stress tensor

variable tmp equal pe
variable e1 equal 90.1692377259654
variable tmp equal press
variable p1 equal -6604.60489882408
variable tmp equal pxx
variable pxx1 equal -1912.60612612902
variable tmp equal pyy
variable pyy1 equal -7637.20860750602
variable tmp equal pzz
variable pzz1 equal -10263.9999628372
variable tmp equal pxy
variable pxy1 equal 1940.22848004967
variable tmp equal pxz
variable pxz1 equal 688.399067699047
variable tmp equal pyz
variable pyz1 equal -477.231314109708

# Compute elastic constant from pressure tensor

variable C1pos equal 26.9810583181933
variable C2pos equal 54.9699880841512
variable C3pos equal 69.7147324888473
variable C4pos equal -10.9433253072863
variable C5pos equal -3.16894555570005
variable C6pos equal -8.56813634156959

# Combine positive and negative

variable C13 equal 0.5*(23.9194973029647+26.9810583181933)
variable C23 equal 0.5*(6.86037833891615+54.9699880841512)
variable C33 equal 0.5*(64.5779332184533+69.7147324888473)
variable C43 equal 0.5*(1.7609565003219+-10.9433253072863)
variable C53 equal 0.5*(4.17604326863384+-3.16894555570005)
variable C63 equal 0.5*(7.69012943518234+-8.56813634156959)

# Delete dir to make sure it is not reused

variable dir delete

# uyz Perturbation

variable dir equal 4
include ./input/displace_333U-50C-26-vasp.mod
variable len0 equal 17.703749615894

# Reset box and simulation parameters

clear
box tilt large

The 'box' command has been removed and will be ignored

read_restart restart_333U-50C-26-vasp.equil
Reading restart file ...
  restart file = 10 Sep 2025, LAMMPS = 10 Sep 2025
  restoring atom style full from restart
  triclinic box = (-0.085405392 -0.077652312 -0.11979731) to (15.611817 14.181946 17.583952) with tilt (-7.0109691 2.1166457 0.89157417)
  restoring pair style lj/cut from restart
  restoring bond style harmonic from restart
  restoring angle style hybrid from restart
  restoring dihedral style harmonic from restart
  365 atoms
  390 bonds
  739 angles
  924 dihedrals
Finding 1-2 1-3 1-4 neighbors ...
     4 = max # of 1-2 neighbors
     8 = max # of 1-3 neighbors
    12 = max # of special neighbors
  read_restart CPU = 0.001 seconds
include ./input/angles_333U-50C-26-vasp.mod
angle_style hybrid fourier cosine/periodic
angle_coeff 1 fourier 157.882480        0.343737        0.374972        0.281246
angle_coeff 2 fourier 221.735285        0.343737        0.374972        0.281246
angle_coeff 3 fourier 83.380072        0.343737        0.374972        0.281246
angle_coeff 4 fourier 32.417871        0.343737        0.374972        0.281246
angle_coeff 5 fourier 114.246973        0.343737        0.374972        0.281246
angle_coeff 6 fourier 58.020602        0.343737        0.374972        0.281246
angle_coeff 7 fourier 90.420412        0.343737        0.374972        0.281246
angle_coeff 8 fourier 75.498766        0.343737        0.374972        0.281246
angle_coeff 9 cosine/periodic 88.853997              -1               3

# Negative deformation

variable delta equal -0.02*17.703749615894
variable deltaxy equal -0.02*xy
variable deltaxz equal -0.02*xz
variable deltayz equal -0.02*yz
change_box all yz delta -0.35407499231788 remap units box
Changing box ...
  triclinic box = (-0.085405392 -0.077652312 -0.11979731) to (15.611817 14.181946 17.583952) with tilt (-7.0109691 2.1166457 0.53749917)

# Relax atoms positions

minimize 0 1e-10 100000 100000
Generated 6 of 6 mixed pair_coeff terms from arithmetic mixing rule
For more information see https://docs.lammps.org/err0027 (src/domain.cpp:1052)
Step          Temp          E_pair         E_mol          TotEng         Press
250355   300.35863     -430.18275      633.62565      529.33648      3191.0513
Loop time of 0.024293 on 1 procs for 41 steps with 365 atoms

Minimization stats:
  Stopping criterion = linesearch alpha is zero
  Energy initial, next-to-last, final =
  Force two-norm initial, final = 178.74561 16.009999
  Force max component initial, final = 20.859512 2.636151
  Final line search alpha, max atom move = 3.3167766e-11 8.7435238e-11
  Iterations, force evaluations = 41 137

# Obtain new stress tensor

variable tmp equal pxx
variable pxx1 equal 2386.95824809973
variable tmp equal pyy
variable pyy1 equal -1923.81705844856
variable tmp equal pzz
variable pzz1 equal 1203.12411364104
variable tmp equal pxy
variable pxy1 equal 1686.91098707146
variable tmp equal pxz
variable pxz1 equal 1289.15115340363
variable tmp equal pyz
variable pyz1 equal 3029.00953433476

# Compute elastic constant from pressure tensor

variable C1neg equal -5.48323644704955
variable C2neg equal -26.4030303388639
variable C3neg equal -12.3791121064561
variable C4neg equal 28.4745295495086
variable C5neg equal 6.17270598422297
variable C6neg equal 7.30154887667854

# Reset box and simulation parameters

clear
box tilt large

The 'box' command has been removed and will be ignored

read_restart restart_333U-50C-26-vasp.equil
Reading restart file ...
  restart file = 10 Sep 2025, LAMMPS = 10 Sep 2025
  restoring atom style full from restart
  triclinic box = (-0.085405392 -0.077652312 -0.11979731) to (15.611817 14.181946 17.583952) with tilt (-7.0109691 2.1166457 0.89157417)
  restoring pair style lj/cut from restart
  restoring bond style harmonic from restart
  restoring angle style hybrid from restart
  restoring dihedral style harmonic from restart
  365 atoms
  390 bonds
  739 angles
  924 dihedrals
Finding 1-2 1-3 1-4 neighbors ...
     4 = max # of 1-2 neighbors
     8 = max # of 1-3 neighbors
    12 = max # of special neighbors
  read_restart CPU = 0.001 seconds
include ./input/angles_333U-50C-26-vasp.mod
angle_style hybrid fourier cosine/periodic
angle_coeff 1 fourier 157.882480        0.343737        0.374972        0.281246
angle_coeff 2 fourier 221.735285        0.343737        0.374972        0.281246
angle_coeff 3 fourier 83.380072        0.343737        0.374972        0.281246
angle_coeff 4 fourier 32.417871        0.343737        0.374972        0.281246
angle_coeff 5 fourier 114.246973        0.343737        0.374972        0.281246
angle_coeff 6 fourier 58.020602        0.343737        0.374972        0.281246
angle_coeff 7 fourier 90.420412        0.343737        0.374972        0.281246
angle_coeff 8 fourier 75.498766        0.343737        0.374972        0.281246
angle_coeff 9 cosine/periodic 88.853997              -1               3

# Positive deformation

variable delta equal 0.02*17.703749615894
variable deltaxy equal 0.02*xy
variable deltaxz equal 0.02*xz
variable deltayz equal 0.02*yz
change_box all yz delta 0.35407499231788 remap units box
Changing box ...
  triclinic box = (-0.085405392 -0.077652312 -0.11979731) to (15.611817 14.181946 17.583952) with tilt (-7.0109691 2.1166457 1.2456492)

# Relax atoms positions

minimize 0 1e-10 100000 100000
Generated 6 of 6 mixed pair_coeff terms from arithmetic mixing rule
For more information see https://docs.lammps.org/err0027 (src/domain.cpp:1052)
Step          Temp          E_pair         E_mol          TotEng         Press
250355   300.35863     -423.64331      634.16282      536.41309      3462.9667
Loop time of 0.0218421 on 1 procs for 33 steps with 365 atoms

Minimization stats:
  Stopping criterion = linesearch alpha is zero
  Energy initial, next-to-last, final =
  Force two-norm initial, final = 179.29113 19.728558
  Force max component initial, final = 18.022001 2.8399926
  Final line search alpha, max atom move = 3.1141493e-11 8.8441609e-11
  Iterations, force evaluations = 33 121

# Obtain new stress tensor

variable tmp equal pe
variable e1 equal 89.6608184389018
variable tmp equal press
variable p1 equal 1203.67391889267
variable tmp equal pxx
variable pxx1 equal 3092.98730167474
variable tmp equal pyy
variable pyy1 equal -2007.44225964313
variable tmp equal pzz
variable pzz1 equal 2525.4767146464
variable tmp equal pxy
variable pxy1 equal 2126.40844350426
variable tmp equal pxz
variable pxz1 equal 1030.52473047696
variable tmp equal pyz
variable pyz1 equal -6289.66273436598

# Compute elastic constant from pressure tensor

variable C1pos equal 1.9530911791745
variable C2pos equal 26.8211563448367
variable C3pos equal 5.76734910142925
variable C4pos equal 18.1188317939951
variable C5pos equal -4.87957386958962
variable C6pos equal -9.49903615884254

# Combine positive and negative

variable C14 equal 0.5*(-5.48323644704955+1.9530911791745)
variable C24 equal 0.5*(-26.4030303388639+26.8211563448367)
variable C34 equal 0.5*(-12.3791121064561+5.76734910142925)
variable C44 equal 0.5*(28.4745295495086+18.1188317939951)
variable C54 equal 0.5*(6.17270598422297+-4.87957386958962)
variable C64 equal 0.5*(7.30154887667854+-9.49903615884254)

# Delete dir to make sure it is not reused

variable dir delete

# uxz Perturbation

variable dir equal 5
include ./input/displace_333U-50C-26-vasp.mod
variable len0 equal 17.703749615894

# Reset box and simulation parameters

clear
box tilt large

The 'box' command has been removed and will be ignored

read_restart restart_333U-50C-26-vasp.equil
Reading restart file ...
  restart file = 10 Sep 2025, LAMMPS = 10 Sep 2025
  restoring atom style full from restart
  triclinic box = (-0.085405392 -0.077652312 -0.11979731) to (15.611817 14.181946 17.583952) with tilt (-7.0109691 2.1166457 0.89157417)
  restoring pair style lj/cut from restart
  restoring bond style harmonic from restart
  restoring angle style hybrid from restart
  restoring dihedral style harmonic from restart
  365 atoms
  390 bonds
  739 angles
  924 dihedrals
Finding 1-2 1-3 1-4 neighbors ...
     4 = max # of 1-2 neighbors
     8 = max # of 1-3 neighbors
    12 = max # of special neighbors
  read_restart CPU = 0.001 seconds
include ./input/angles_333U-50C-26-vasp.mod
angle_style hybrid fourier cosine/periodic
angle_coeff 1 fourier 157.882480        0.343737        0.374972        0.281246
angle_coeff 2 fourier 221.735285        0.343737        0.374972        0.281246
angle_coeff 3 fourier 83.380072        0.343737        0.374972        0.281246
angle_coeff 4 fourier 32.417871        0.343737        0.374972        0.281246
angle_coeff 5 fourier 114.246973        0.343737        0.374972        0.281246
angle_coeff 6 fourier 58.020602        0.343737        0.374972        0.281246
angle_coeff 7 fourier 90.420412        0.343737        0.374972        0.281246
angle_coeff 8 fourier 75.498766        0.343737        0.374972        0.281246
angle_coeff 9 cosine/periodic 88.853997              -1               3

# Negative deformation

variable delta equal -0.02*17.703749615894
variable deltaxy equal -0.02*xy
variable deltaxz equal -0.02*xz
variable deltayz equal -0.02*yz
change_box all xz delta -0.35407499231788 remap units box
Changing box ...
  triclinic box = (-0.085405392 -0.077652312 -0.11979731) to (15.611817 14.181946 17.583952) with tilt (-7.0109691 1.7625707 0.89157417)

# Relax atoms positions

minimize 0 1e-10 100000 100000
Generated 6 of 6 mixed pair_coeff terms from arithmetic mixing rule
For more information see https://docs.lammps.org/err0027 (src/domain.cpp:1052)
Step          Temp          E_pair         E_mol          TotEng         Press
250355   300.35863     -427.6253       634.95892      533.22719      2867.7236
Loop time of 0.0295246 on 1 procs for 35 steps with 365 atoms

Minimization stats:
  Stopping criterion = linesearch alpha is zero
  Energy initial, next-to-last, final =
  Force two-norm initial, final = 180.95506 20.038854
  Force max component initial, final = 18.269072 3.5718578
  Final line search alpha, max atom move = 2.5623953e-11 9.1525116e-11
  Iterations, force evaluations = 35 125

# Obtain new stress tensor

variable tmp equal pxx
variable pxx1 equal 3164.63828674503
variable tmp equal pyy
variable pyy1 equal -2539.95932667396
variable tmp equal pzz
variable pzz1 equal 2399.0741345776
variable tmp equal pxy
variable pxy1 equal 1925.81815123355
variable tmp equal pxz
variable pxz1 equal 5560.69877093116
variable tmp equal pyz
variable pyz1 equal -1578.51453304175

# Compute elastic constant from pressure tensor

variable C1neg equal -1.59483625382305
variable C2neg equal -29.4837416799909
variable C3neg equal -6.39936200177325
variable C4neg equal 5.43690921262605
variable C5neg equal 27.5304440718606
variable C6neg equal 8.49608469748899

# Reset box and simulation parameters

clear
box tilt large

The 'box' command has been removed and will be ignored

read_restart restart_333U-50C-26-vasp.equil
Reading restart file ...
  restart file = 10 Sep 2025, LAMMPS = 10 Sep 2025
  restoring atom style full from restart
  triclinic box = (-0.085405392 -0.077652312 -0.11979731) to (15.611817 14.181946 17.583952) with tilt (-7.0109691 2.1166457 0.89157417)
  restoring pair style lj/cut from restart
  restoring bond style harmonic from restart
  restoring angle style hybrid from restart
  restoring dihedral style harmonic from restart
  365 atoms
  390 bonds
  739 angles
  924 dihedrals
Finding 1-2 1-3 1-4 neighbors ...
     4 = max # of 1-2 neighbors
     8 = max # of 1-3 neighbors
    12 = max # of special neighbors
  read_restart CPU = 0.001 seconds
include ./input/angles_333U-50C-26-vasp.mod
angle_style hybrid fourier cosine/periodic
angle_coeff 1 fourier 157.882480        0.343737        0.374972        0.281246
angle_coeff 2 fourier 221.735285        0.343737        0.374972        0.281246
angle_coeff 3 fourier 83.380072        0.343737        0.374972        0.281246
angle_coeff 4 fourier 32.417871        0.343737        0.374972        0.281246
angle_coeff 5 fourier 114.246973        0.343737        0.374972        0.281246
angle_coeff 6 fourier 58.020602        0.343737        0.374972        0.281246
angle_coeff 7 fourier 90.420412        0.343737        0.374972        0.281246
angle_coeff 8 fourier 75.498766        0.343737        0.374972        0.281246
angle_coeff 9 cosine/periodic 88.853997              -1               3

# Positive deformation

variable delta equal 0.02*17.703749615894
variable deltaxy equal 0.02*xy
variable deltaxz equal 0.02*xz
variable deltayz equal 0.02*yz
change_box all xz delta 0.35407499231788 remap units box
Changing box ...
  triclinic box = (-0.085405392 -0.077652312 -0.11979731) to (15.611817 14.181946 17.583952) with tilt (-7.0109691 2.4707207 0.89157417)

# Relax atoms positions

minimize 0 1e-10 100000 100000
Generated 6 of 6 mixed pair_coeff terms from arithmetic mixing rule
For more information see https://docs.lammps.org/err0027 (src/domain.cpp:1052)
Step          Temp          E_pair         E_mol          TotEng         Press
250355   300.35863     -426.1428       633.43758      533.18835      3778.2297
Loop time of 0.0378524 on 1 procs for 41 steps with 365 atoms

Minimization stats:
  Stopping criterion = linesearch alpha is zero
  Energy initial, next-to-last, final =
  Force two-norm initial, final = 180.94105 16.508733
  Force max component initial, final = 19.171152 1.9098351
  Final line search alpha, max atom move = 3.1826879e-11 6.078409e-11
  Iterations, force evaluations = 41 137

# Obtain new stress tensor

variable tmp equal pe
variable e1 equal 82.4960576575186
variable tmp equal press
variable p1 equal 682.437562391712
variable tmp equal pxx
variable pxx1 equal 2129.09195338114
variable tmp equal pyy
variable pyy1 equal -1283.36189447625
variable tmp equal pzz
variable pzz1 equal 1201.58262827025
variable tmp equal pxy
variable pxy1 equal 2055.95035466296
variable tmp equal pxz
variable pxz1 equal -3205.89050056274
variable tmp equal pyz
variable pyz1 equal -1426.32191630158

# Compute elastic constant from pressure tensor

variable C1pos equal 6.7725679206425
variable C2pos equal 23.2007545190023
variable C3pos equal 12.38681953331
variable C4pos equal -6.1978722963269
variable C5pos equal 16.3025022856089
variable C6pos equal -9.14674571463604

# Combine positive and negative

variable C15 equal 0.5*(-1.59483625382305+6.7725679206425)
variable C25 equal 0.5*(-29.4837416799909+23.2007545190023)
variable C35 equal 0.5*(-6.39936200177325+12.38681953331)
variable C45 equal 0.5*(5.43690921262605+-6.1978722963269)
variable C55 equal 0.5*(27.5304440718606+16.3025022856089)
variable C65 equal 0.5*(8.49608469748899+-9.14674571463604)

# Delete dir to make sure it is not reused

variable dir delete

# uxy Perturbation

variable dir equal 6
include ./input/displace_333U-50C-26-vasp.mod
variable len0 equal 14.2595986237947

# Reset box and simulation parameters

clear
box tilt large

The 'box' command has been removed and will be ignored

read_restart restart_333U-50C-26-vasp.equil
Reading restart file ...
  restart file = 10 Sep 2025, LAMMPS = 10 Sep 2025
  restoring atom style full from restart
  triclinic box = (-0.085405392 -0.077652312 -0.11979731) to (15.611817 14.181946 17.583952) with tilt (-7.0109691 2.1166457 0.89157417)
  restoring pair style lj/cut from restart
  restoring bond style harmonic from restart
  restoring angle style hybrid from restart
  restoring dihedral style harmonic from restart
  365 atoms
  390 bonds
  739 angles
  924 dihedrals
Finding 1-2 1-3 1-4 neighbors ...
     4 = max # of 1-2 neighbors
     8 = max # of 1-3 neighbors
    12 = max # of special neighbors
  read_restart CPU = 0.001 seconds
include ./input/angles_333U-50C-26-vasp.mod
angle_style hybrid fourier cosine/periodic
angle_coeff 1 fourier 157.882480        0.343737        0.374972        0.281246
angle_coeff 2 fourier 221.735285        0.343737        0.374972        0.281246
angle_coeff 3 fourier 83.380072        0.343737        0.374972        0.281246
angle_coeff 4 fourier 32.417871        0.343737        0.374972        0.281246
angle_coeff 5 fourier 114.246973        0.343737        0.374972        0.281246
angle_coeff 6 fourier 58.020602        0.343737        0.374972        0.281246
angle_coeff 7 fourier 90.420412        0.343737        0.374972        0.281246
angle_coeff 8 fourier 75.498766        0.343737        0.374972        0.281246
angle_coeff 9 cosine/periodic 88.853997              -1               3

# Negative deformation

variable delta equal -0.02*14.2595986237947
variable deltaxy equal -0.02*xy
variable deltaxz equal -0.02*xz
variable deltayz equal -0.02*yz
change_box all xy delta -0.285191972475894 remap units box
Changing box ...
  triclinic box = (-0.085405392 -0.077652312 -0.11979731) to (15.611817 14.181946 17.583952) with tilt (-7.2961611 2.1166457 0.89157417)

# Relax atoms positions

minimize 0 1e-10 100000 100000
Generated 6 of 6 mixed pair_coeff terms from arithmetic mixing rule
For more information see https://docs.lammps.org/err0027 (src/domain.cpp:1052)
Step          Temp          E_pair         E_mol          TotEng         Press
250355   300.35863     -427.11728      633.6891       532.4654       2958.3497
Loop time of 0.0269387 on 1 procs for 33 steps with 365 atoms

Minimization stats:
  Stopping criterion = linesearch alpha is zero
  Energy initial, next-to-last, final =
  Force two-norm initial, final = 178.07885 20.034428
  Force max component initial, final = 20.303472 2.6666218
  Final line search alpha, max atom move = 3.0293116e-11 8.0780286e-11
  Iterations, force evaluations = 33 121

# Obtain new stress tensor

variable tmp equal pxx
variable pxx1 equal 2177.20018235321
variable tmp equal pyy
variable pyy1 equal -1757.97142389691
variable tmp equal pzz
variable pzz1 equal 1792.8821516296
variable tmp equal pxy
variable pxy1 equal 5536.13698191943
variable tmp equal pxz
variable pxz1 equal 1061.04191588758
variable tmp equal pyz
variable pyz1 equal -2062.40321709773

# Compute elastic constant from pressure tensor

variable C1neg equal -6.53202677578215
variable C2neg equal -25.5738021661056
variable C3neg equal -9.43032191651325
variable C4neg equal 3.01746579234615
variable C5neg equal 5.03215979664272
variable C6neg equal 26.5476788509184

# Reset box and simulation parameters

clear
box tilt large

The 'box' command has been removed and will be ignored

read_restart restart_333U-50C-26-vasp.equil
Reading restart file ...
  restart file = 10 Sep 2025, LAMMPS = 10 Sep 2025
  restoring atom style full from restart
  triclinic box = (-0.085405392 -0.077652312 -0.11979731) to (15.611817 14.181946 17.583952) with tilt (-7.0109691 2.1166457 0.89157417)
  restoring pair style lj/cut from restart
  restoring bond style harmonic from restart
  restoring angle style hybrid from restart
  restoring dihedral style harmonic from restart
  365 atoms
  390 bonds
  739 angles
  924 dihedrals
Finding 1-2 1-3 1-4 neighbors ...
     4 = max # of 1-2 neighbors
     8 = max # of 1-3 neighbors
    12 = max # of special neighbors
  read_restart CPU = 0.001 seconds
include ./input/angles_333U-50C-26-vasp.mod
angle_style hybrid fourier cosine/periodic
angle_coeff 1 fourier 157.882480        0.343737        0.374972        0.281246
angle_coeff 2 fourier 221.735285        0.343737        0.374972        0.281246
angle_coeff 3 fourier 83.380072        0.343737        0.374972        0.281246
angle_coeff 4 fourier 32.417871        0.343737        0.374972        0.281246
angle_coeff 5 fourier 114.246973        0.343737        0.374972        0.281246
angle_coeff 6 fourier 58.020602        0.343737        0.374972        0.281246
angle_coeff 7 fourier 90.420412        0.343737        0.374972        0.281246
angle_coeff 8 fourier 75.498766        0.343737        0.374972        0.281246
angle_coeff 9 cosine/periodic 88.853997              -1               3

# Positive deformation

variable delta equal 0.02*14.2595986237947
variable deltaxy equal 0.02*xy
variable deltaxz equal 0.02*xz
variable deltayz equal 0.02*yz
change_box all xy delta 0.285191972475894 remap units box
Changing box ...
  triclinic box = (-0.085405392 -0.077652312 -0.11979731) to (15.611817 14.181946 17.583952) with tilt (-6.7257771 2.1166457 0.89157417)

# Relax atoms positions

minimize 0 1e-10 100000 100000
Generated 6 of 6 mixed pair_coeff terms from arithmetic mixing rule
For more information see https://docs.lammps.org/err0027 (src/domain.cpp:1052)
Step          Temp          E_pair         E_mol          TotEng         Press
250355   300.35863     -426.12582      631.99901      531.76677      3721.8378
Loop time of 0.0274787 on 1 procs for 49 steps with 365 atoms

Minimization stats:
  Stopping criterion = linesearch alpha is zero
  Energy initial, next-to-last, final =
  Force two-norm initial, final = 178.3067 13.610542
  Force max component initial, final = 24.674349 2.0551694
  Final line search alpha, max atom move = 6.4379101e-11 1.3230996e-10
  Iterations, force evaluations = 49 151

# Obtain new stress tensor

variable tmp equal pe
variable e1 equal 80.2302220324548
variable tmp equal press
variable p1 equal 1009.72205522643
variable tmp equal pxx
variable pxx1 equal 2371.14813356833
variable tmp equal pyy
variable pyy1 equal -1631.67882463713
variable tmp equal pzz
variable pzz1 equal 2289.69685674809
variable tmp equal pxy
variable pxy1 equal -1914.12065126473
variable tmp equal pxz
variable pxz1 equal 1267.81714846362
variable tmp equal pyz
variable pyz1 equal -997.958303475579

# Compute elastic constant from pressure tensor

variable C1pos equal 5.56228701970655
variable C2pos equal 24.9423391698067
variable C3pos equal 6.9462483909208
variable C4pos equal -8.33969036045691
variable C5pos equal -6.06603595952292
variable C6pos equal 10.7036093150024

# Combine positive and negative

variable C16 equal 0.5*(-6.53202677578215+5.56228701970655)
variable C26 equal 0.5*(-25.5738021661056+24.9423391698067)
variable C36 equal 0.5*(-9.43032191651325+6.9462483909208)
variable C46 equal 0.5*(3.01746579234615+-8.33969036045691)
variable C56 equal 0.5*(5.03215979664272+-6.06603595952292)
variable C66 equal 0.5*(26.5476788509184+10.7036093150024)

# Delete dir to make sure it is not reused

variable dir delete

# Output final values

variable C11all equal 68.5008901080975
variable C22all equal 63.0442172834019
variable C33all equal 67.1463328536503

variable C12all equal 0.5*(26.558630532057+23.40415991885)
variable C13all equal 0.5*(25.450277810579+23.2578670011762)
variable C23all equal 0.5*(30.9151832115337+29.7423626818929)

variable C44all equal 23.2966806717519
variable C55all equal 21.9164731787347
variable C66all equal 18.6256440829604

variable C14all equal 0.5*(-1.76507263393753+-0.367961975048825)
variable C15all equal 0.5*(2.58886583340972+0.6407724918581)
variable C16all equal 0.5*(-0.4848698780378+-3.06536957685644)

variable C24all equal 0.5*(0.209063002986401+0.369546070471075)
variable C25all equal 0.5*(-3.1414935804943+-4.4927352483532)
variable C26all equal 0.5*(-0.31573149814945+-1.78580682190135)

variable C34all equal 0.5*(-3.30588150251342+-4.5911844034822)
variable C35all equal 0.5*(2.99372876576837+0.503548856466895)
variable C36all equal 0.5*(-1.24203676279622+-0.439003453193625)

variable C45all equal 0.5*(-0.380481541850425+0.646566057316675)
variable C46all equal 0.5*(-2.66111228405538+-1.098743641082)
variable C56all equal 0.5*(-0.5169380814401+-0.325330508573525)

# Average moduli for cubic crystals

variable C11cubic equal (68.5008901080975+63.0442172834019+67.1463328536503)/3.0
variable C12cubic equal (24.9813952254535+24.3540724058776+30.3287729467133)/3.0
variable C44cubic equal (23.2966806717519+21.9164731787347+18.6256440829604)/3.0

variable bulkmodulus equal (66.2304800817166+2*26.5547468593481)/3.0
variable shearmodulus1 equal 21.279599311149
variable shearmodulus2 equal (66.2304800817166-26.5547468593481)/2.0
variable poissonratio equal 1.0/(1.0+66.2304800817166/26.5547468593481)

Elastic Constant 1 1 = 68.5008901080975
Elastic Constant 2 2 = 63.0442172834019
Elastic Constant 3 3 = 67.1463328536503

Elastic Constant 1 2 = 24.9813952254535
Elastic Constant 1 3 = 24.3540724058776
Elastic Constant 2 3 = 30.3287729467133

Elastic Constant 4 4 = 23.2966806717519
Elastic Constant 5 5 = 21.9164731787347
Elastic Constant 6 6 = 18.6256440829604

Elastic Constant 1 4 = -1.06651730449318
Elastic Constant 1 5 = 1.61481916263391
Elastic Constant 1 6 = -1.77511972744712

Elastic Constant 2 4 = 0.289304536728738
Elastic Constant 2 5 = -3.81711441442375
Elastic Constant 2 6 = -1.0507691600254

Elastic Constant 3 4 = -3.94853295299781
Elastic Constant 3 5 = 1.74863881111763
Elastic Constant 3 6 = -0.840520107994922

Elastic Constant 4 5 = 0.133042257733125
Elastic Constant 4 6 = -1.87992796256869
Elastic Constant 5 6 = -0.421134295006813

Bulk Modulus = 39.7799912668043 GPa
Shear Modulus 1 = 21.279599311149 GPa
Shear Modulus 2 = 19.8378666111843 GPa
Poisson Ratio = 0.286195849649806

variable rho equal density
density (g/cm^3) = 1.66834042211676
