units           real
atom_style      full
boundary        p p p

pair_style      lj/cut 5.000
bond_style      harmonic
angle_style     hybrid fourier cosine/periodic
dihedral_style  harmonic

dielectric      1.0
pair_modify     tail yes mix arithmetic
special_bonds   lj/coul 0.0 0.0 1.0
box tilt        large

The 'box' command has been removed and will be ignored

read_data       ./dat/data.333U-50C-33-vasp
Reading data file ...
  triclinic box = (0 0 0) to (15.070942 13.84627 18.322176) with tilt (-7.731775 0.246278 -0.138154)
  reading atoms ...
  365 atoms
  scanning bonds ...
  scanning angles ...
  scanning dihedrals ...
  triclinic box = (0 0 0) to (15.070942 13.84627 18.322176) with tilt (-7.731775 0.246278 -0.138154)
  reading bonds ...
  390 bonds
  reading angles ...
  739 angles
  reading dihedrals ...
  924 dihedrals
Finding 1-2 1-3 1-4 neighbors ...
     4 = max # of 1-2 neighbors
    10 = max # of 1-3 neighbors
    14 = max # of special neighbors

#### Atom Groupings ####
group           fram     id   1:365
365 atoms in group fram
#### END Atom Groupings ####

compute am all property/atom mass
dump        atom_pos all extxyz 100 ./output/333U-50C-33-vasp.lammpstrj
dump_modify atom_pos element Si C H O mass yes
thermo          1000
thermo_style    custom step temp pe ke etotal press vol density

variable up equal 2e-2
variable cfac equal 1.0e-4
variable cunits string GPa

# Define minimization parameters
variable etol equal 0.0
variable ftol equal 1.0e-10
variable maxiter equal 100000
variable maxeval equal 100000
variable dmax equal 1.0e-2

variable temp equal 300.0
variable thermal_damp index 100.0
variable pressure_damp index 500.0

fix relax all box/relax aniso 0.0 vmax 0.001
unfix relax
minimize 0 1e-10 100000 100000
Generated 6 of 6 mixed pair_coeff terms from arithmetic mixing rule
For more information see https://docs.lammps.org/err0027 (src/domain.cpp:1052)
Step          Temp          PotEng         KinEng         TotEng         Press          Volume        Density
0   0              1343.3368      0              1343.3368      100586.92      3823.4045      1.7291386
Loop time of 0.0513835 on 1 procs for 92 steps with 365 atoms

Minimization stats:
  Stopping criterion = linesearch alpha is zero
  Energy initial, next-to-last, final =
  Force two-norm initial, final = 902.58516 18.999572
  Force max component initial, final = 97.592328 5.2768188
  Final line search alpha, max atom move = 2.5550617e-11 1.3482598e-10
  Iterations, force evaluations = 92 236

# Generating the full routine as described in the paper for UFF
fix nvt_relax   all nvt temp 300 300 100.0
run 100000      # 100 picoseconds
Generated 6 of 6 mixed pair_coeff terms from arithmetic mixing rule
For more information see https://docs.lammps.org/err0027 (src/domain.cpp:1052)
Step          Temp          PotEng         KinEng         TotEng         Press          Volume        Density
92   0              39.17452       0              39.17452       11904.103      3823.4045      1.7291386
Averages over the last 51 of 102 rows, steps 51000 to 100092:
Temp PotEng KinEng TotEng Press Volume Density
297.694 341.165 323.002 664.167 19058.2 3823.4 1.72914
Loop time of 22.8616 on 1 procs for 100000 steps with 365 atoms

unfix           nvt_relax

fix npt_relax   all npt temp 300 300 100.0 iso 0 0 500.0
run 100000      # 100 picoseconds
Generated 6 of 6 mixed pair_coeff terms from arithmetic mixing rule
For more information see https://docs.lammps.org/err0027 (src/domain.cpp:1052)
Step          Temp          PotEng         KinEng         TotEng         Press          Volume        Density
100092   290.33631      335.51676      315.01921      650.53597      21150.083      3823.4045      1.7291386
Averages over the last 51 of 102 rows, steps 151000 to 200092:
Temp PotEng KinEng TotEng Press Volume Density
298.122 316.023 323.466 639.489 -446.533 4004.78 1.65086
Loop time of 25.7687 on 1 procs for 100000 steps with 365 atoms

unfix           npt_relax

# run 100000      # 100 picoseconds
# unfix           nvt_heat
#
# run 100000      # 100 picoseconds
# unfix           npt_heat
#
# run 700000      # 700 picoseconds
# unfix           cooling_npt
#
# run 100000      # 100 picoseconds
# unfix           npt_final

# density computation
variable rho equal density
fix integrate  all npt temp 300 300 100.0 iso 0 0 500.0
fix rho50k all ave/time 10 5000 50000 v_rho mode scalar ave one
run 50000
Generated 6 of 6 mixed pair_coeff terms from arithmetic mixing rule
For more information see https://docs.lammps.org/err0027 (src/domain.cpp:1052)
Step          Temp          PotEng         KinEng         TotEng         Press          Volume        Density
200092   277.78545      318.10944      301.40134      619.51077     -2350.5493      4031.3634      1.6399406
Averages over the last 26 of 52 rows, steps 226000 to 250092:
Temp PotEng KinEng TotEng Press Volume Density
298.414 311.884 323.784 635.668 163.99 3977.47 1.66222
Loop time of 14.2335 on 1 procs for 50000 steps with 365 atoms

unfix integrate
unfix rho50k

# Compute initial state
fix 3 all box/relax  aniso 0.0
minimize 0 1e-10 100000 100000
Generated 6 of 6 mixed pair_coeff terms from arithmetic mixing rule
 (src/min.cpp:222)
For more information see https://docs.lammps.org/err0027 (src/domain.cpp:1052)
Step          Temp          PotEng         KinEng         TotEng         Press          Volume        Density
250092   286.77938      307.28982      311.15988      618.4497      -5456.0901      3962.2978      1.6685259
Loop time of 0.0728513 on 1 procs for 219 steps with 365 atoms

Minimization stats:
  Stopping criterion = linesearch alpha is zero
  Energy initial, next-to-last, final =
  Force two-norm initial, final = 1226.0628 160.29027
  Force max component initial, final = 939.34512 17.533147
  Final line search alpha, max atom move = 3.6992192e-13 6.4858955e-12
  Iterations, force evaluations = 219 328

variable tmp equal pxx
variable pxx0 equal 3869.69821771049
variable tmp equal pyy
variable pyy0 equal 3852.87582541666
variable tmp equal pzz
variable pzz0 equal 3906.08185148859
variable tmp equal pyz
variable pyz0 equal 2063.40807926885
variable tmp equal pxz
variable pxz0 equal -7269.11933165803
variable tmp equal pxy
variable pxy0 equal 2131.49102023693

variable tmp equal lx
variable lx0 equal 15.1488362571581
variable tmp equal ly
variable ly0 equal 13.9856798727703
variable tmp equal lz
variable lz0 equal 18.5962914553643

# These formulas define the derivatives w.r.t. strain components
# Constants uses $, variables use v_
variable d1 equal -(v_pxx1-3869.69821771049)/(v_delta/v_len0)*0.0001
variable d2 equal -(v_pyy1-3852.87582541666)/(v_delta/v_len0)*0.0001
variable d3 equal -(v_pzz1-3906.08185148859)/(v_delta/v_len0)*0.0001
variable d4 equal -(v_pyz1-2063.40807926885)/(v_delta/v_len0)*0.0001
variable d5 equal -(v_pxz1--7269.11933165803)/(v_delta/v_len0)*0.0001
variable d6 equal -(v_pxy1-2131.49102023693)/(v_delta/v_len0)*0.0001

# Write restart
unfix 3
write_restart restart_333U-50C-33-vasp.equil
System init for write_restart ...
Generated 6 of 6 mixed pair_coeff terms from arithmetic mixing rule

# uxx Perturbation

variable dir equal 1
include ./input/displace_333U-50C-33-vasp.mod
variable len0 equal 15.1488362571581

# Reset box and simulation parameters

clear
box tilt large

The 'box' command has been removed and will be ignored

read_restart restart_333U-50C-33-vasp.equil
Reading restart file ...
  restart file = 10 Sep 2025, LAMMPS = 10 Sep 2025
  restoring atom style full from restart
  triclinic box = (-0.038947129 -0.069704936 -0.13705773) to (15.109889 13.915975 18.459234) with tilt (-7.8096217 0.24996253 -0.1402209)
  restoring pair style lj/cut from restart
  restoring bond style harmonic from restart
  restoring angle style hybrid from restart
  restoring dihedral style harmonic from restart
  365 atoms
  390 bonds
  739 angles
  924 dihedrals
Finding 1-2 1-3 1-4 neighbors ...
     4 = max # of 1-2 neighbors
    10 = max # of 1-3 neighbors
    14 = max # of special neighbors
  read_restart CPU = 0.002 seconds
include ./input/angles_333U-50C-33-vasp.mod
angle_style hybrid fourier cosine/periodic
angle_coeff 1 fourier 114.246973        0.343737        0.374972        0.281246
angle_coeff 2 fourier 157.882480        0.343737        0.374972        0.281246
angle_coeff 3 fourier 221.735285        0.343737        0.374972        0.281246
angle_coeff 4 fourier 32.417871        0.343737        0.374972        0.281246
angle_coeff 5 fourier 83.380072        0.343737        0.374972        0.281246
angle_coeff 6 fourier 58.020602        0.343737        0.374972        0.281246
angle_coeff 7 fourier 90.420412        0.343737        0.374972        0.281246
angle_coeff 8 fourier 75.498766        0.343737        0.374972        0.281246
angle_coeff 9 cosine/periodic 88.853997              -1               3

# Negative deformation

variable delta equal -0.02*15.1488362571581
variable deltaxy equal -0.02*xy
variable deltaxz equal -0.02*xz
variable deltayz equal -0.02*yz
change_box all x delta 0 -0.302976725143162 xy delta 0.156192433049901 xz delta -0.0049992505988852 remap units box
Changing box ...
  triclinic box = (-0.038947129 -0.069704936 -0.13705773) to (14.806912 13.915975 18.459234) with tilt (-7.8096217 0.24996253 -0.1402209)
  triclinic box = (-0.038947129 -0.069704936 -0.13705773) to (14.806912 13.915975 18.459234) with tilt (-7.6534292 0.24996253 -0.1402209)
  triclinic box = (-0.038947129 -0.069704936 -0.13705773) to (14.806912 13.915975 18.459234) with tilt (-7.6534292 0.24496328 -0.1402209)

# Relax atoms positions

minimize 0 1e-10 100000 100000
Generated 6 of 6 mixed pair_coeff terms from arithmetic mixing rule
For more information see https://docs.lammps.org/err0027 (src/domain.cpp:1052)
Step          Temp          E_pair         E_mol          TotEng         Press
250311   286.77938     -438.03877      594.48796      467.60908      30038.248
Loop time of 0.0309126 on 1 procs for 48 steps with 365 atoms

Minimization stats:
  Stopping criterion = linesearch alpha is zero
  Energy initial, next-to-last, final =
  Force two-norm initial, final = 245.0508 15.280378
  Force max component initial, final = 27.556874 2.1924365
  Final line search alpha, max atom move = 4.0272596e-11 8.8295109e-11
  Iterations, force evaluations = 48 155

# Obtain new stress tensor

variable tmp equal pxx
variable pxx1 equal 10363.0696353614
variable tmp equal pyy
variable pyy1 equal 1905.31949471634
variable tmp equal pzz
variable pzz1 equal 10146.7298363435
variable tmp equal pxy
variable pxy1 equal -2000.8498111093
variable tmp equal pxz
variable pxz1 equal -7052.98073221458
variable tmp equal pyz
variable pyz1 equal 701.046860361237

# Compute elastic constant from pressure tensor

variable C1neg equal 32.4668570882546
variable C2neg equal -9.7377816535016
variable C3neg equal 31.2032399242746
variable C4neg equal -6.81180609453807
variable C5neg equal 1.08069299721725
variable C6neg equal -20.6617041567312

# Reset box and simulation parameters

clear
box tilt large

The 'box' command has been removed and will be ignored

read_restart restart_333U-50C-33-vasp.equil
Reading restart file ...
  restart file = 10 Sep 2025, LAMMPS = 10 Sep 2025
  restoring atom style full from restart
  triclinic box = (-0.038947129 -0.069704936 -0.13705773) to (15.109889 13.915975 18.459234) with tilt (-7.8096217 0.24996253 -0.1402209)
  restoring pair style lj/cut from restart
  restoring bond style harmonic from restart
  restoring angle style hybrid from restart
  restoring dihedral style harmonic from restart
  365 atoms
  390 bonds
  739 angles
  924 dihedrals
Finding 1-2 1-3 1-4 neighbors ...
     4 = max # of 1-2 neighbors
    10 = max # of 1-3 neighbors
    14 = max # of special neighbors
  read_restart CPU = 0.002 seconds
include ./input/angles_333U-50C-33-vasp.mod
angle_style hybrid fourier cosine/periodic
angle_coeff 1 fourier 114.246973        0.343737        0.374972        0.281246
angle_coeff 2 fourier 157.882480        0.343737        0.374972        0.281246
angle_coeff 3 fourier 221.735285        0.343737        0.374972        0.281246
angle_coeff 4 fourier 32.417871        0.343737        0.374972        0.281246
angle_coeff 5 fourier 83.380072        0.343737        0.374972        0.281246
angle_coeff 6 fourier 58.020602        0.343737        0.374972        0.281246
angle_coeff 7 fourier 90.420412        0.343737        0.374972        0.281246
angle_coeff 8 fourier 75.498766        0.343737        0.374972        0.281246
angle_coeff 9 cosine/periodic 88.853997              -1               3

# Positive deformation

variable delta equal 0.02*15.1488362571581
variable deltaxy equal 0.02*xy
variable deltaxz equal 0.02*xz
variable deltayz equal 0.02*yz
change_box all x delta 0 0.302976725143162 xy delta -0.156192433049901 xz delta 0.0049992505988852 remap units box
Changing box ...
  triclinic box = (-0.038947129 -0.069704936 -0.13705773) to (15.412866 13.915975 18.459234) with tilt (-7.8096217 0.24996253 -0.1402209)
  triclinic box = (-0.038947129 -0.069704936 -0.13705773) to (15.412866 13.915975 18.459234) with tilt (-7.9658141 0.24996253 -0.1402209)
  triclinic box = (-0.038947129 -0.069704936 -0.13705773) to (15.412866 13.915975 18.459234) with tilt (-7.9658141 0.25496178 -0.1402209)

# Relax atoms positions

minimize 0 1e-10 100000 100000
Generated 6 of 6 mixed pair_coeff terms from arithmetic mixing rule
For more information see https://docs.lammps.org/err0027 (src/domain.cpp:1052)
Step          Temp          E_pair         E_mol          TotEng         Press
250311   286.77938     -469.7369       626.25166      467.67465     -21448.032
Loop time of 0.0850586 on 1 procs for 58 steps with 365 atoms

Minimization stats:
  Stopping criterion = linesearch alpha is zero
  Energy initial, next-to-last, final =
  Force two-norm initial, final = 237.79211 6.7144554
  Force max component initial, final = 24.586517 0.934461
  Final line search alpha, max atom move = 1.9932829e-10 1.8626451e-10
  Iterations, force evaluations = 58 464

# Obtain new stress tensor

variable tmp equal pe
variable e1 equal -1.35589031355164
variable tmp equal press
variable p1 equal -6241.5137438934
variable tmp equal pxx
variable pxx1 equal -12688.8681630725
variable tmp equal pyy
variable pyy1 equal -6811.612690578
variable tmp equal pzz
variable pzz1 equal 775.93962197026
variable tmp equal pxy
variable pxy1 equal -410.1743167016
variable tmp equal pxz
variable pxz1 equal -6147.0481245549
variable tmp equal pyz
variable pyz1 equal 980.18529165108

# Compute elastic constant from pressure tensor

variable C1pos equal 82.792831903915
variable C2pos equal 53.3224425799733
variable C3pos equal 15.6507111475917
variable C4pos equal 5.41611393808885
variable C5pos equal -5.61035603551565
variable C6pos equal 12.7083266846927

# Combine positive and negative

variable C11 equal 0.5*(32.4668570882546+82.792831903915)
variable C21 equal 0.5*(-9.7377816535016+53.3224425799733)
variable C31 equal 0.5*(31.2032399242746+15.6507111475917)
variable C41 equal 0.5*(-6.81180609453807+5.41611393808885)
variable C51 equal 0.5*(1.08069299721725+-5.61035603551565)
variable C61 equal 0.5*(-20.6617041567312+12.7083266846927)

# Delete dir to make sure it is not reused

variable dir delete

# uyy Perturbation

variable dir equal 2
include ./input/displace_333U-50C-33-vasp.mod
variable len0 equal 13.9856798727703

# Reset box and simulation parameters

clear
box tilt large

The 'box' command has been removed and will be ignored

read_restart restart_333U-50C-33-vasp.equil
Reading restart file ...
  restart file = 10 Sep 2025, LAMMPS = 10 Sep 2025
  restoring atom style full from restart
  triclinic box = (-0.038947129 -0.069704936 -0.13705773) to (15.109889 13.915975 18.459234) with tilt (-7.8096217 0.24996253 -0.1402209)
  restoring pair style lj/cut from restart
  restoring bond style harmonic from restart
  restoring angle style hybrid from restart
  restoring dihedral style harmonic from restart
  365 atoms
  390 bonds
  739 angles
  924 dihedrals
Finding 1-2 1-3 1-4 neighbors ...
     4 = max # of 1-2 neighbors
    10 = max # of 1-3 neighbors
    14 = max # of special neighbors
  read_restart CPU = 0.001 seconds
include ./input/angles_333U-50C-33-vasp.mod
angle_style hybrid fourier cosine/periodic
angle_coeff 1 fourier 114.246973        0.343737        0.374972        0.281246
angle_coeff 2 fourier 157.882480        0.343737        0.374972        0.281246
angle_coeff 3 fourier 221.735285        0.343737        0.374972        0.281246
angle_coeff 4 fourier 32.417871        0.343737        0.374972        0.281246
angle_coeff 5 fourier 83.380072        0.343737        0.374972        0.281246
angle_coeff 6 fourier 58.020602        0.343737        0.374972        0.281246
angle_coeff 7 fourier 90.420412        0.343737        0.374972        0.281246
angle_coeff 8 fourier 75.498766        0.343737        0.374972        0.281246
angle_coeff 9 cosine/periodic 88.853997              -1               3

# Negative deformation

variable delta equal -0.02*13.9856798727703
variable deltaxy equal -0.02*xy
variable deltaxz equal -0.02*xz
variable deltayz equal -0.02*yz
change_box all y delta 0 -0.279713597455406 yz delta 0.00280441804480462 remap units box
Changing box ...
  triclinic box = (-0.038947129 -0.069704936 -0.13705773) to (15.109889 13.636261 18.459234) with tilt (-7.8096217 0.24996253 -0.1402209)
  triclinic box = (-0.038947129 -0.069704936 -0.13705773) to (15.109889 13.636261 18.459234) with tilt (-7.8096217 0.24996253 -0.13741648)

# Relax atoms positions

minimize 0 1e-10 100000 100000
Generated 6 of 6 mixed pair_coeff terms from arithmetic mixing rule
For more information see https://docs.lammps.org/err0027 (src/domain.cpp:1052)
Step          Temp          E_pair         E_mol          TotEng         Press
250311   286.77938     -435.1241       591.5289       467.56469      29922.927
Loop time of 0.0389438 on 1 procs for 54 steps with 365 atoms

Minimization stats:
  Stopping criterion = linesearch alpha is zero
  Energy initial, next-to-last, final =
  Force two-norm initial, final = 234.7901 12.846724
  Force max component initial, final = 22.16997 1.6006227
  Final line search alpha, max atom move = 4.2026144e-11 6.7267999e-11
  Iterations, force evaluations = 54 170

# Obtain new stress tensor

variable tmp equal pxx
variable pxx1 equal 3329.26064253985
variable tmp equal pyy
variable pyy1 equal 12250.5088508305
variable tmp equal pzz
variable pzz1 equal 12225.2428072314
variable tmp equal pxy
variable pxy1 equal -1160.45470885976
variable tmp equal pxz
variable pxz1 equal -6476.42640558985
variable tmp equal pyz
variable pyz1 equal 1211.35902174218

# Compute elastic constant from pressure tensor

variable C1neg equal -2.7021878758532
variable C2neg equal 41.9881651270692
variable C3neg equal 41.595804778714
variable C4neg equal -4.26024528763335
variable C5neg equal 3.9634646303409
variable C6neg equal -16.4597286454834

# Reset box and simulation parameters

clear
box tilt large

The 'box' command has been removed and will be ignored

read_restart restart_333U-50C-33-vasp.equil
Reading restart file ...
  restart file = 10 Sep 2025, LAMMPS = 10 Sep 2025
  restoring atom style full from restart
  triclinic box = (-0.038947129 -0.069704936 -0.13705773) to (15.109889 13.915975 18.459234) with tilt (-7.8096217 0.24996253 -0.1402209)
  restoring pair style lj/cut from restart
  restoring bond style harmonic from restart
  restoring angle style hybrid from restart
  restoring dihedral style harmonic from restart
  365 atoms
  390 bonds
  739 angles
  924 dihedrals
Finding 1-2 1-3 1-4 neighbors ...
     4 = max # of 1-2 neighbors
    10 = max # of 1-3 neighbors
    14 = max # of special neighbors
  read_restart CPU = 0.001 seconds
include ./input/angles_333U-50C-33-vasp.mod
angle_style hybrid fourier cosine/periodic
angle_coeff 1 fourier 114.246973        0.343737        0.374972        0.281246
angle_coeff 2 fourier 157.882480        0.343737        0.374972        0.281246
angle_coeff 3 fourier 221.735285        0.343737        0.374972        0.281246
angle_coeff 4 fourier 32.417871        0.343737        0.374972        0.281246
angle_coeff 5 fourier 83.380072        0.343737        0.374972        0.281246
angle_coeff 6 fourier 58.020602        0.343737        0.374972        0.281246
angle_coeff 7 fourier 90.420412        0.343737        0.374972        0.281246
angle_coeff 8 fourier 75.498766        0.343737        0.374972        0.281246
angle_coeff 9 cosine/periodic 88.853997              -1               3

# Positive deformation

variable delta equal 0.02*13.9856798727703
variable deltaxy equal 0.02*xy
variable deltaxz equal 0.02*xz
variable deltayz equal 0.02*yz
change_box all y delta 0 0.279713597455406 yz delta -0.00280441804480462 remap units box
Changing box ...
  triclinic box = (-0.038947129 -0.069704936 -0.13705773) to (15.109889 14.195689 18.459234) with tilt (-7.8096217 0.24996253 -0.1402209)
  triclinic box = (-0.038947129 -0.069704936 -0.13705773) to (15.109889 14.195689 18.459234) with tilt (-7.8096217 0.24996253 -0.14302532)

# Relax atoms positions

minimize 0 1e-10 100000 100000
Generated 6 of 6 mixed pair_coeff terms from arithmetic mixing rule
For more information see https://docs.lammps.org/err0027 (src/domain.cpp:1052)
Step          Temp          E_pair         E_mol          TotEng         Press
250311   286.77938     -472.34058      627.50056      466.31986     -21282.997
Loop time of 0.15452 on 1 procs for 65 steps with 365 atoms

Minimization stats:
  Stopping criterion = linesearch alpha is zero
  Energy initial, next-to-last, final =
  Force two-norm initial, final = 231.78886 9.7512657
  Force max component initial, final = 28.381492 1.2489864
  Final line search alpha, max atom move = 7.4566271e-11 9.3132257e-11
  Iterations, force evaluations = 65 664

# Obtain new stress tensor

variable tmp equal pe
variable e1 equal 0.890247400075737
variable tmp equal press
variable p1 equal -7178.1033269237
variable tmp equal pxx
variable pxx1 equal -5963.96080853049
variable tmp equal pyy
variable pyy1 equal -15511.3260617177
variable tmp equal pzz
variable pzz1 equal -59.0231105229135
variable tmp equal pxy
variable pxy1 equal -920.832578164508
variable tmp equal pxz
variable pxz1 equal -6621.1620860805
variable tmp equal pyz
variable pyz1 equal 678.141059201621

# Compute elastic constant from pressure tensor

variable C1pos equal 49.1682951312049
variable C2pos equal 96.8210094356718
variable C3pos equal 19.8255248100575
variable C4pos equal 6.92633510033614
variable C5pos equal -3.23978622788765
variable C6pos equal 15.2616179920072

# Combine positive and negative

variable C12 equal 0.5*(-2.7021878758532+49.1682951312049)
variable C22 equal 0.5*(41.9881651270692+96.8210094356718)
variable C32 equal 0.5*(41.595804778714+19.8255248100575)
variable C42 equal 0.5*(-4.26024528763335+6.92633510033614)
variable C52 equal 0.5*(3.9634646303409+-3.23978622788765)
variable C62 equal 0.5*(-16.4597286454834+15.2616179920072)

# Delete dir to make sure it is not reused

variable dir delete

# uzz Perturbation

variable dir equal 3
include ./input/displace_333U-50C-33-vasp.mod
variable len0 equal 18.5962914553643

# Reset box and simulation parameters

clear
box tilt large

The 'box' command has been removed and will be ignored

read_restart restart_333U-50C-33-vasp.equil
Reading restart file ...
  restart file = 10 Sep 2025, LAMMPS = 10 Sep 2025
  restoring atom style full from restart
  triclinic box = (-0.038947129 -0.069704936 -0.13705773) to (15.109889 13.915975 18.459234) with tilt (-7.8096217 0.24996253 -0.1402209)
  restoring pair style lj/cut from restart
  restoring bond style harmonic from restart
  restoring angle style hybrid from restart
  restoring dihedral style harmonic from restart
  365 atoms
  390 bonds
  739 angles
  924 dihedrals
Finding 1-2 1-3 1-4 neighbors ...
     4 = max # of 1-2 neighbors
    10 = max # of 1-3 neighbors
    14 = max # of special neighbors
  read_restart CPU = 0.001 seconds
include ./input/angles_333U-50C-33-vasp.mod
angle_style hybrid fourier cosine/periodic
angle_coeff 1 fourier 114.246973        0.343737        0.374972        0.281246
angle_coeff 2 fourier 157.882480        0.343737        0.374972        0.281246
angle_coeff 3 fourier 221.735285        0.343737        0.374972        0.281246
angle_coeff 4 fourier 32.417871        0.343737        0.374972        0.281246
angle_coeff 5 fourier 83.380072        0.343737        0.374972        0.281246
angle_coeff 6 fourier 58.020602        0.343737        0.374972        0.281246
angle_coeff 7 fourier 90.420412        0.343737        0.374972        0.281246
angle_coeff 8 fourier 75.498766        0.343737        0.374972        0.281246
angle_coeff 9 cosine/periodic 88.853997              -1               3

# Negative deformation

variable delta equal -0.02*18.5962914553643
variable deltaxy equal -0.02*xy
variable deltaxz equal -0.02*xz
variable deltayz equal -0.02*yz
change_box all z delta 0 -0.371925829107286 remap units box
Changing box ...
  triclinic box = (-0.038947129 -0.069704936 -0.13705773) to (15.109889 13.915975 18.087308) with tilt (-7.8096217 0.24996253 -0.1402209)

# Relax atoms positions

minimize 0 1e-10 100000 100000
Generated 6 of 6 mixed pair_coeff terms from arithmetic mixing rule
For more information see https://docs.lammps.org/err0027 (src/domain.cpp:1052)
Step          Temp          E_pair         E_mol          TotEng         Press
250311   286.77938     -430.69674      589.72642      470.18957      31239.639
Loop time of 0.0888621 on 1 procs for 45 steps with 365 atoms

Minimization stats:
  Stopping criterion = linesearch alpha is zero
  Energy initial, next-to-last, final =
  Force two-norm initial, final = 234.69568 10.906677
  Force max component initial, final = 26.142029 1.393523
  Final line search alpha, max atom move = 6.6832238e-11 9.3132257e-11
  Iterations, force evaluations = 45 355

# Obtain new stress tensor

variable tmp equal pxx
variable pxx1 equal 3164.19848620836
variable tmp equal pyy
variable pyy1 equal 4056.97760690912
variable tmp equal pzz
variable pzz1 equal 20492.7520857014
variable tmp equal pxy
variable pxy1 equal -1803.1684547911
variable tmp equal pxz
variable pxz1 equal -6104.22805590787
variable tmp equal pyz
variable pyz1 equal 1308.98914372582

# Compute elastic constant from pressure tensor

variable C1neg equal -3.52749865751065
variable C2neg equal 1.0205089074623
variable C3neg equal 82.9333511710641
variable C4neg equal -3.77209467771515
variable C5neg equal 5.8244563787508
variable C6neg equal -19.6732973751402

# Reset box and simulation parameters

clear
box tilt large

The 'box' command has been removed and will be ignored

read_restart restart_333U-50C-33-vasp.equil
Reading restart file ...
  restart file = 10 Sep 2025, LAMMPS = 10 Sep 2025
  restoring atom style full from restart
  triclinic box = (-0.038947129 -0.069704936 -0.13705773) to (15.109889 13.915975 18.459234) with tilt (-7.8096217 0.24996253 -0.1402209)
  restoring pair style lj/cut from restart
  restoring bond style harmonic from restart
  restoring angle style hybrid from restart
  restoring dihedral style harmonic from restart
  365 atoms
  390 bonds
  739 angles
  924 dihedrals
Finding 1-2 1-3 1-4 neighbors ...
     4 = max # of 1-2 neighbors
    10 = max # of 1-3 neighbors
    14 = max # of special neighbors
  read_restart CPU = 0.001 seconds
include ./input/angles_333U-50C-33-vasp.mod
angle_style hybrid fourier cosine/periodic
angle_coeff 1 fourier 114.246973        0.343737        0.374972        0.281246
angle_coeff 2 fourier 157.882480        0.343737        0.374972        0.281246
angle_coeff 3 fourier 221.735285        0.343737        0.374972        0.281246
angle_coeff 4 fourier 32.417871        0.343737        0.374972        0.281246
angle_coeff 5 fourier 83.380072        0.343737        0.374972        0.281246
angle_coeff 6 fourier 58.020602        0.343737        0.374972        0.281246
angle_coeff 7 fourier 90.420412        0.343737        0.374972        0.281246
angle_coeff 8 fourier 75.498766        0.343737        0.374972        0.281246
angle_coeff 9 cosine/periodic 88.853997              -1               3

# Positive deformation

variable delta equal 0.02*18.5962914553643
variable deltaxy equal 0.02*xy
variable deltaxz equal 0.02*xz
variable deltayz equal 0.02*yz
change_box all z delta 0 0.371925829107286 remap units box
Changing box ...
  triclinic box = (-0.038947129 -0.069704936 -0.13705773) to (15.109889 13.915975 18.83116) with tilt (-7.8096217 0.24996253 -0.1402209)

# Relax atoms positions

minimize 0 1e-10 100000 100000
Generated 6 of 6 mixed pair_coeff terms from arithmetic mixing rule
For more information see https://docs.lammps.org/err0027 (src/domain.cpp:1052)
Step          Temp          E_pair         E_mol          TotEng         Press
250311   286.77938     -474.85428      631.53282      467.83842     -22495.99
Loop time of 0.0415834 on 1 procs for 54 steps with 365 atoms

Minimization stats:
  Stopping criterion = linesearch alpha is zero
  Energy initial, next-to-last, final =
  Force two-norm initial, final = 238.96024 16.874106
  Force max component initial, final = 27.871467 2.934639
  Final line search alpha, max atom move = 2.7026186e-11 7.9312098e-11
  Iterations, force evaluations = 54 168

# Obtain new stress tensor

variable tmp equal pe
variable e1 equal -11.0130403030547
variable tmp equal press
variable p1 equal -7024.9202880199
variable tmp equal pxx
variable pxx1 equal -5932.7020863636
variable tmp equal pyy
variable pyy1 equal -7789.85743052967
variable tmp equal pzz
variable pzz1 equal -7352.20134716645
variable tmp equal pxy
variable pxy1 equal -317.254853169332
variable tmp equal pxz
variable pxz1 equal -6397.50649706656
variable tmp equal pyz
variable pyz1 equal 56.7918283806731

# Compute elastic constant from pressure tensor

variable C1pos equal 49.0120015203705
variable C2pos equal 58.2136662797317
variable C3pos equal 56.2914159932752
variable C4pos equal 10.0330812544409
variable C5pos equal -4.35806417295735
variable C6pos equal 12.2437293670313

# Combine positive and negative

variable C13 equal 0.5*(-3.52749865751065+49.0120015203705)
variable C23 equal 0.5*(1.0205089074623+58.2136662797317)
variable C33 equal 0.5*(82.9333511710641+56.2914159932752)
variable C43 equal 0.5*(-3.77209467771515+10.0330812544409)
variable C53 equal 0.5*(5.8244563787508+-4.35806417295735)
variable C63 equal 0.5*(-19.6732973751402+12.2437293670313)

# Delete dir to make sure it is not reused

variable dir delete

# uyz Perturbation

variable dir equal 4
include ./input/displace_333U-50C-33-vasp.mod
variable len0 equal 18.5962914553643

# Reset box and simulation parameters

clear
box tilt large

The 'box' command has been removed and will be ignored

read_restart restart_333U-50C-33-vasp.equil
Reading restart file ...
  restart file = 10 Sep 2025, LAMMPS = 10 Sep 2025
  restoring atom style full from restart
  triclinic box = (-0.038947129 -0.069704936 -0.13705773) to (15.109889 13.915975 18.459234) with tilt (-7.8096217 0.24996253 -0.1402209)
  restoring pair style lj/cut from restart
  restoring bond style harmonic from restart
  restoring angle style hybrid from restart
  restoring dihedral style harmonic from restart
  365 atoms
  390 bonds
  739 angles
  924 dihedrals
Finding 1-2 1-3 1-4 neighbors ...
     4 = max # of 1-2 neighbors
    10 = max # of 1-3 neighbors
    14 = max # of special neighbors
  read_restart CPU = 0.001 seconds
include ./input/angles_333U-50C-33-vasp.mod
angle_style hybrid fourier cosine/periodic
angle_coeff 1 fourier 114.246973        0.343737        0.374972        0.281246
angle_coeff 2 fourier 157.882480        0.343737        0.374972        0.281246
angle_coeff 3 fourier 221.735285        0.343737        0.374972        0.281246
angle_coeff 4 fourier 32.417871        0.343737        0.374972        0.281246
angle_coeff 5 fourier 83.380072        0.343737        0.374972        0.281246
angle_coeff 6 fourier 58.020602        0.343737        0.374972        0.281246
angle_coeff 7 fourier 90.420412        0.343737        0.374972        0.281246
angle_coeff 8 fourier 75.498766        0.343737        0.374972        0.281246
angle_coeff 9 cosine/periodic 88.853997              -1               3

# Negative deformation

variable delta equal -0.02*18.5962914553643
variable deltaxy equal -0.02*xy
variable deltaxz equal -0.02*xz
variable deltayz equal -0.02*yz
change_box all yz delta -0.371925829107286 remap units box
Changing box ...
  triclinic box = (-0.038947129 -0.069704936 -0.13705773) to (15.109889 13.915975 18.459234) with tilt (-7.8096217 0.24996253 -0.51214673)

# Relax atoms positions

minimize 0 1e-10 100000 100000
Generated 6 of 6 mixed pair_coeff terms from arithmetic mixing rule
For more information see https://docs.lammps.org/err0027 (src/domain.cpp:1052)
Step          Temp          E_pair         E_mol          TotEng         Press
250311   286.77938     -454.8636       595.66149      451.95777      4457.4405
Loop time of 0.0396042 on 1 procs for 45 steps with 365 atoms

Minimization stats:
  Stopping criterion = linesearch alpha is zero
  Energy initial, next-to-last, final =
  Force two-norm initial, final = 205.05103 18.508578
  Force max component initial, final = 20.142744 2.0831475
  Final line search alpha, max atom move = 3.1265601e-11 6.513086e-11
  Iterations, force evaluations = 45 160

# Obtain new stress tensor

variable tmp equal pxx
variable pxx1 equal -2126.37017754939
variable tmp equal pyy
variable pyy1 equal -2413.08349717981
variable tmp equal pzz
variable pzz1 equal 5877.99669308701
variable tmp equal pxy
variable pxy1 equal -896.51491519897
variable tmp equal pxz
variable pxz1 equal -6790.65222213278
variable tmp equal pyz
variable pyz1 equal 6436.98719533448

# Compute elastic constant from pressure tensor

variable C1neg equal -29.9803419762994
variable C2neg equal -31.3297966129824
variable C3neg equal 9.8595742079921
variable C4neg equal 21.8678955803282
variable C5neg equal 2.39233554762625
variable C6neg equal -15.1400296771795

# Reset box and simulation parameters

clear
box tilt large

The 'box' command has been removed and will be ignored

read_restart restart_333U-50C-33-vasp.equil
Reading restart file ...
  restart file = 10 Sep 2025, LAMMPS = 10 Sep 2025
  restoring atom style full from restart
  triclinic box = (-0.038947129 -0.069704936 -0.13705773) to (15.109889 13.915975 18.459234) with tilt (-7.8096217 0.24996253 -0.1402209)
  restoring pair style lj/cut from restart
  restoring bond style harmonic from restart
  restoring angle style hybrid from restart
  restoring dihedral style harmonic from restart
  365 atoms
  390 bonds
  739 angles
  924 dihedrals
Finding 1-2 1-3 1-4 neighbors ...
     4 = max # of 1-2 neighbors
    10 = max # of 1-3 neighbors
    14 = max # of special neighbors
  read_restart CPU = 0.001 seconds
include ./input/angles_333U-50C-33-vasp.mod
angle_style hybrid fourier cosine/periodic
angle_coeff 1 fourier 114.246973        0.343737        0.374972        0.281246
angle_coeff 2 fourier 157.882480        0.343737        0.374972        0.281246
angle_coeff 3 fourier 221.735285        0.343737        0.374972        0.281246
angle_coeff 4 fourier 32.417871        0.343737        0.374972        0.281246
angle_coeff 5 fourier 83.380072        0.343737        0.374972        0.281246
angle_coeff 6 fourier 58.020602        0.343737        0.374972        0.281246
angle_coeff 7 fourier 90.420412        0.343737        0.374972        0.281246
angle_coeff 8 fourier 75.498766        0.343737        0.374972        0.281246
angle_coeff 9 cosine/periodic 88.853997              -1               3

# Positive deformation

variable delta equal 0.02*18.5962914553643
variable deltaxy equal 0.02*xy
variable deltaxz equal 0.02*xz
variable deltayz equal 0.02*yz
change_box all yz delta 0.371925829107286 remap units box
Changing box ...
  triclinic box = (-0.038947129 -0.069704936 -0.13705773) to (15.109889 13.915975 18.459234) with tilt (-7.8096217 0.24996253 0.23170493)

# Relax atoms positions

minimize 0 1e-10 100000 100000
Generated 6 of 6 mixed pair_coeff terms from arithmetic mixing rule
For more information see https://docs.lammps.org/err0027 (src/domain.cpp:1052)
Step          Temp          E_pair         E_mol          TotEng         Press
250311   286.77938     -456.81307      592.9287       447.27551      2876.746
Loop time of 0.0364705 on 1 procs for 42 steps with 365 atoms

Minimization stats:
  Stopping criterion = linesearch alpha is zero
  Energy initial, next-to-last, final =
  Force two-norm initial, final = 202.6424 20.655378
  Force max component initial, final = 23.1205 3.7613865
  Final line search alpha, max atom move = 2.2835143e-11 8.5891798e-11
  Iterations, force evaluations = 42 147

# Obtain new stress tensor

variable tmp equal pe
variable e1 equal -10.0119408137339
variable tmp equal press
variable p1 equal -320.540629095647
variable tmp equal pxx
variable pxx1 equal -2259.64249703579
variable tmp equal pyy
variable pyy1 equal -3121.49564067845
variable tmp equal pzz
variable pzz1 equal 4419.5162504273
variable tmp equal pxy
variable pxy1 equal -1641.28854287882
variable tmp equal pxz
variable pxz1 equal -6176.55117658861
variable tmp equal pyz
variable pyz1 equal -4143.51339744247

# Compute elastic constant from pressure tensor

variable C1pos equal 30.6467035737314
variable C2pos equal 34.8718573304756
variable C3pos equal -2.56717199469355
variable C4pos equal 31.0346073835566
variable C5pos equal -5.4628407753471
variable C6pos equal 18.8638978155788

# Combine positive and negative

variable C14 equal 0.5*(-29.9803419762994+30.6467035737314)
variable C24 equal 0.5*(-31.3297966129824+34.8718573304756)
variable C34 equal 0.5*(9.8595742079921+-2.56717199469355)
variable C44 equal 0.5*(21.8678955803282+31.0346073835566)
variable C54 equal 0.5*(2.39233554762625+-5.4628407753471)
variable C64 equal 0.5*(-15.1400296771795+18.8638978155788)

# Delete dir to make sure it is not reused

variable dir delete

# uxz Perturbation

variable dir equal 5
include ./input/displace_333U-50C-33-vasp.mod
variable len0 equal 18.5962914553643

# Reset box and simulation parameters

clear
box tilt large

The 'box' command has been removed and will be ignored

read_restart restart_333U-50C-33-vasp.equil
Reading restart file ...
  restart file = 10 Sep 2025, LAMMPS = 10 Sep 2025
  restoring atom style full from restart
  triclinic box = (-0.038947129 -0.069704936 -0.13705773) to (15.109889 13.915975 18.459234) with tilt (-7.8096217 0.24996253 -0.1402209)
  restoring pair style lj/cut from restart
  restoring bond style harmonic from restart
  restoring angle style hybrid from restart
  restoring dihedral style harmonic from restart
  365 atoms
  390 bonds
  739 angles
  924 dihedrals
Finding 1-2 1-3 1-4 neighbors ...
     4 = max # of 1-2 neighbors
    10 = max # of 1-3 neighbors
    14 = max # of special neighbors
  read_restart CPU = 0.001 seconds
include ./input/angles_333U-50C-33-vasp.mod
angle_style hybrid fourier cosine/periodic
angle_coeff 1 fourier 114.246973        0.343737        0.374972        0.281246
angle_coeff 2 fourier 157.882480        0.343737        0.374972        0.281246
angle_coeff 3 fourier 221.735285        0.343737        0.374972        0.281246
angle_coeff 4 fourier 32.417871        0.343737        0.374972        0.281246
angle_coeff 5 fourier 83.380072        0.343737        0.374972        0.281246
angle_coeff 6 fourier 58.020602        0.343737        0.374972        0.281246
angle_coeff 7 fourier 90.420412        0.343737        0.374972        0.281246
angle_coeff 8 fourier 75.498766        0.343737        0.374972        0.281246
angle_coeff 9 cosine/periodic 88.853997              -1               3

# Negative deformation

variable delta equal -0.02*18.5962914553643
variable deltaxy equal -0.02*xy
variable deltaxz equal -0.02*xz
variable deltayz equal -0.02*yz
change_box all xz delta -0.371925829107286 remap units box
Changing box ...
  triclinic box = (-0.038947129 -0.069704936 -0.13705773) to (15.109889 13.915975 18.459234) with tilt (-7.8096217 -0.1219633 -0.1402209)

# Relax atoms positions

minimize 0 1e-10 100000 100000
Generated 6 of 6 mixed pair_coeff terms from arithmetic mixing rule
For more information see https://docs.lammps.org/err0027 (src/domain.cpp:1052)
Step          Temp          E_pair         E_mol          TotEng         Press
250311   286.77938     -458.69272      588.90265      441.36981      3491.282
Loop time of 0.0443368 on 1 procs for 59 steps with 365 atoms

Minimization stats:
  Stopping criterion = linesearch alpha is zero
  Energy initial, next-to-last, final =
  Force two-norm initial, final = 203.09056 11.495867
  Force max component initial, final = 20.46695 2.2483504
  Final line search alpha, max atom move = 7.7993924e-11 1.7535767e-10
  Iterations, force evaluations = 59 177

# Obtain new stress tensor

variable tmp equal pxx
variable pxx1 equal -1852.9714737743
variable tmp equal pyy
variable pyy1 equal -2350.97820332631
variable tmp equal pzz
variable pzz1 equal 5995.65470009525
variable tmp equal pxy
variable pxy1 equal -884.677237904582
variable tmp equal pxz
variable pxz1 equal -2285.21233260851
variable tmp equal pyz
variable pyz1 equal 681.608342414977

# Compute elastic constant from pressure tensor

variable C1neg equal -28.613348457424
variable C2neg equal -31.0192701437149
variable C3neg equal 10.4478642430333
variable C4neg equal -6.90899868426937
variable C5neg equal 24.9195349952476
variable C6neg equal -15.0808412907076

# Reset box and simulation parameters

clear
box tilt large

The 'box' command has been removed and will be ignored

read_restart restart_333U-50C-33-vasp.equil
Reading restart file ...
  restart file = 10 Sep 2025, LAMMPS = 10 Sep 2025
  restoring atom style full from restart
  triclinic box = (-0.038947129 -0.069704936 -0.13705773) to (15.109889 13.915975 18.459234) with tilt (-7.8096217 0.24996253 -0.1402209)
  restoring pair style lj/cut from restart
  restoring bond style harmonic from restart
  restoring angle style hybrid from restart
  restoring dihedral style harmonic from restart
  365 atoms
  390 bonds
  739 angles
  924 dihedrals
Finding 1-2 1-3 1-4 neighbors ...
     4 = max # of 1-2 neighbors
    10 = max # of 1-3 neighbors
    14 = max # of special neighbors
  read_restart CPU = 0.001 seconds
include ./input/angles_333U-50C-33-vasp.mod
angle_style hybrid fourier cosine/periodic
angle_coeff 1 fourier 114.246973        0.343737        0.374972        0.281246
angle_coeff 2 fourier 157.882480        0.343737        0.374972        0.281246
angle_coeff 3 fourier 221.735285        0.343737        0.374972        0.281246
angle_coeff 4 fourier 32.417871        0.343737        0.374972        0.281246
angle_coeff 5 fourier 83.380072        0.343737        0.374972        0.281246
angle_coeff 6 fourier 58.020602        0.343737        0.374972        0.281246
angle_coeff 7 fourier 90.420412        0.343737        0.374972        0.281246
angle_coeff 8 fourier 75.498766        0.343737        0.374972        0.281246
angle_coeff 9 cosine/periodic 88.853997              -1               3

# Positive deformation

variable delta equal 0.02*18.5962914553643
variable deltaxy equal 0.02*xy
variable deltaxz equal 0.02*xz
variable deltayz equal 0.02*yz
change_box all xz delta 0.371925829107286 remap units box
Changing box ...
  triclinic box = (-0.038947129 -0.069704936 -0.13705773) to (15.109889 13.915975 18.459234) with tilt (-7.8096217 0.62188836 -0.1402209)

# Relax atoms positions

minimize 0 1e-10 100000 100000
Generated 6 of 6 mixed pair_coeff terms from arithmetic mixing rule
For more information see https://docs.lammps.org/err0027 (src/domain.cpp:1052)
Step          Temp          E_pair         E_mol          TotEng         Press
250311   286.77938     -451.56776      599.34584      458.93796      3883.086
Loop time of 0.0385286 on 1 procs for 45 steps with 365 atoms

Minimization stats:
  Stopping criterion = linesearch alpha is zero
  Energy initial, next-to-last, final =
  Force two-norm initial, final = 198.06406 16.343448
  Force max component initial, final = 19.577264 2.099497
  Final line search alpha, max atom move = 3.4660393e-11 7.2769392e-11
  Iterations, force evaluations = 45 155

# Obtain new stress tensor

variable tmp equal pe
variable e1 equal -5.074903741068
variable tmp equal press
variable p1 equal 76.4186526109836
variable tmp equal pxx
variable pxx1 equal -1824.99973291615
variable tmp equal pyy
variable pyy1 equal -2793.22133837228
variable tmp equal pzz
variable pzz1 equal 4847.47702912138
variable tmp equal pxy
variable pxy1 equal -1564.29773674163
variable tmp equal pxz
variable pxz1 equal -10699.7803165703
variable tmp equal pyz
variable pyz1 equal 1391.1198804417

# Compute elastic constant from pressure tensor

variable C1pos equal 28.4734897531332
variable C2pos equal 33.2304858189447
variable C3pos equal -4.70697588816395
variable C4pos equal 3.36144099413575
variable C5pos equal 17.1533049245614
variable C6pos equal 18.4789437848928

# Combine positive and negative

variable C15 equal 0.5*(-28.613348457424+28.4734897531332)
variable C25 equal 0.5*(-31.0192701437149+33.2304858189447)
variable C35 equal 0.5*(10.4478642430333+-4.70697588816395)
variable C45 equal 0.5*(-6.90899868426937+3.36144099413575)
variable C55 equal 0.5*(24.9195349952476+17.1533049245614)
variable C65 equal 0.5*(-15.0808412907076+18.4789437848928)

# Delete dir to make sure it is not reused

variable dir delete

# uxy Perturbation

variable dir equal 6
include ./input/displace_333U-50C-33-vasp.mod
variable len0 equal 13.9856798727703

# Reset box and simulation parameters

clear
box tilt large

The 'box' command has been removed and will be ignored

read_restart restart_333U-50C-33-vasp.equil
Reading restart file ...
  restart file = 10 Sep 2025, LAMMPS = 10 Sep 2025
  restoring atom style full from restart
  triclinic box = (-0.038947129 -0.069704936 -0.13705773) to (15.109889 13.915975 18.459234) with tilt (-7.8096217 0.24996253 -0.1402209)
  restoring pair style lj/cut from restart
  restoring bond style harmonic from restart
  restoring angle style hybrid from restart
  restoring dihedral style harmonic from restart
  365 atoms
  390 bonds
  739 angles
  924 dihedrals
Finding 1-2 1-3 1-4 neighbors ...
     4 = max # of 1-2 neighbors
    10 = max # of 1-3 neighbors
    14 = max # of special neighbors
  read_restart CPU = 0.001 seconds
include ./input/angles_333U-50C-33-vasp.mod
angle_style hybrid fourier cosine/periodic
angle_coeff 1 fourier 114.246973        0.343737        0.374972        0.281246
angle_coeff 2 fourier 157.882480        0.343737        0.374972        0.281246
angle_coeff 3 fourier 221.735285        0.343737        0.374972        0.281246
angle_coeff 4 fourier 32.417871        0.343737        0.374972        0.281246
angle_coeff 5 fourier 83.380072        0.343737        0.374972        0.281246
angle_coeff 6 fourier 58.020602        0.343737        0.374972        0.281246
angle_coeff 7 fourier 90.420412        0.343737        0.374972        0.281246
angle_coeff 8 fourier 75.498766        0.343737        0.374972        0.281246
angle_coeff 9 cosine/periodic 88.853997              -1               3

# Negative deformation

variable delta equal -0.02*13.9856798727703
variable deltaxy equal -0.02*xy
variable deltaxz equal -0.02*xz
variable deltayz equal -0.02*yz
change_box all xy delta -0.279713597455406 remap units box
Changing box ...
  triclinic box = (-0.038947129 -0.069704936 -0.13705773) to (15.109889 13.915975 18.459234) with tilt (-8.0893352 0.24996253 -0.1402209)

# Relax atoms positions

minimize 0 1e-10 100000 100000
Generated 6 of 6 mixed pair_coeff terms from arithmetic mixing rule
For more information see https://docs.lammps.org/err0027 (src/domain.cpp:1052)
Step          Temp          E_pair         E_mol          TotEng         Press
250311   286.77938     -455.79828      596.50698      451.86858      3428.2721
Loop time of 0.0509781 on 1 procs for 70 steps with 365 atoms

Minimization stats:
  Stopping criterion = linesearch alpha is zero
  Energy initial, next-to-last, final =
  Force two-norm initial, final = 200.09706 10.863256
  Force max component initial, final = 21.523388 1.7071749
  Final line search alpha, max atom move = 5.7794369e-11 9.8665094e-11
  Iterations, force evaluations = 70 205

# Obtain new stress tensor

variable tmp equal pxx
variable pxx1 equal -2759.03588595407
variable tmp equal pyy
variable pyy1 equal -2900.63409099038
variable tmp equal pzz
variable pzz1 equal 5672.85566306239
variable tmp equal pxy
variable pxy1 equal 2725.44102911408
variable tmp equal pxz
variable pxz1 equal -6818.7085523265
variable tmp equal pyz
variable pyz1 equal 668.487605054026

# Compute elastic constant from pressure tensor

variable C1neg equal -33.1436705183228
variable C2neg equal -33.7675495820352
variable C3neg equal 8.833869057869
variable C4neg equal -6.97460237107412
variable C5neg equal 2.25205389665765
variable C6neg equal 2.96975004438575

# Reset box and simulation parameters

clear
box tilt large

The 'box' command has been removed and will be ignored

read_restart restart_333U-50C-33-vasp.equil
Reading restart file ...
  restart file = 10 Sep 2025, LAMMPS = 10 Sep 2025
  restoring atom style full from restart
  triclinic box = (-0.038947129 -0.069704936 -0.13705773) to (15.109889 13.915975 18.459234) with tilt (-7.8096217 0.24996253 -0.1402209)
  restoring pair style lj/cut from restart
  restoring bond style harmonic from restart
  restoring angle style hybrid from restart
  restoring dihedral style harmonic from restart
  365 atoms
  390 bonds
  739 angles
  924 dihedrals
Finding 1-2 1-3 1-4 neighbors ...
     4 = max # of 1-2 neighbors
    10 = max # of 1-3 neighbors
    14 = max # of special neighbors
  read_restart CPU = 0.001 seconds
include ./input/angles_333U-50C-33-vasp.mod
angle_style hybrid fourier cosine/periodic
angle_coeff 1 fourier 114.246973        0.343737        0.374972        0.281246
angle_coeff 2 fourier 157.882480        0.343737        0.374972        0.281246
angle_coeff 3 fourier 221.735285        0.343737        0.374972        0.281246
angle_coeff 4 fourier 32.417871        0.343737        0.374972        0.281246
angle_coeff 5 fourier 83.380072        0.343737        0.374972        0.281246
angle_coeff 6 fourier 58.020602        0.343737        0.374972        0.281246
angle_coeff 7 fourier 90.420412        0.343737        0.374972        0.281246
angle_coeff 8 fourier 75.498766        0.343737        0.374972        0.281246
angle_coeff 9 cosine/periodic 88.853997              -1               3

# Positive deformation

variable delta equal 0.02*13.9856798727703
variable deltaxy equal 0.02*xy
variable deltaxz equal 0.02*xz
variable deltayz equal 0.02*yz
change_box all xy delta 0.279713597455406 remap units box
Changing box ...
  triclinic box = (-0.038947129 -0.069704936 -0.13705773) to (15.109889 13.915975 18.459234) with tilt (-7.5299081 0.24996253 -0.1402209)

# Relax atoms positions

minimize 0 1e-10 100000 100000
Generated 6 of 6 mixed pair_coeff terms from arithmetic mixing rule
For more information see https://docs.lammps.org/err0027 (src/domain.cpp:1052)
Step          Temp          E_pair         E_mol          TotEng         Press
250311   286.77938     -454.72607      590.3407       446.77451      3955.9091
Loop time of 0.0351474 on 1 procs for 35 steps with 365 atoms

Minimization stats:
  Stopping criterion = linesearch alpha is zero
  Energy initial, next-to-last, final =
  Force two-norm initial, final = 200.4309 24.840616
  Force max component initial, final = 22.108098 3.0152462
  Final line search alpha, max atom move = 1.228727e-11 3.7049144e-11
  Iterations, force evaluations = 35 139

# Obtain new stress tensor

variable tmp equal pe
variable e1 equal -8.14395961087178
variable tmp equal press
variable p1 equal 716.269004621549
variable tmp equal pxx
variable pxx1 equal -1740.85161755308
variable tmp equal pyy
variable pyy1 equal -1571.71740282144
variable tmp equal pzz
variable pzz1 equal 5461.37603423916
variable tmp equal pxy
variable pxy1 equal -4806.8995670323
variable tmp equal pxz
variable pxz1 equal -6877.97033385984
variable tmp equal pyz
variable pyz1 equal 615.031426299366

# Compute elastic constant from pressure tensor

variable C1pos equal 28.0527491763178
variable C2pos equal 27.1229661411905
variable C3pos equal -7.77647091375285
variable C4pos equal 7.24188326484742
variable C5pos equal -1.95574498899095
variable C6pos equal 34.6919529363461

# Combine positive and negative

variable C16 equal 0.5*(-33.1436705183228+28.0527491763178)
variable C26 equal 0.5*(-33.7675495820352+27.1229661411905)
variable C36 equal 0.5*(8.833869057869+-7.77647091375285)
variable C46 equal 0.5*(-6.97460237107412+7.24188326484742)
variable C56 equal 0.5*(2.25205389665765+-1.95574498899095)
variable C66 equal 0.5*(2.96975004438575+34.6919529363461)

# Delete dir to make sure it is not reused

variable dir delete

# Output final values

variable C11all equal 57.6298444960848
variable C22all equal 69.4045872813705
variable C33all equal 69.6123835821697

variable C12all equal 0.5*(23.2330536276759+21.7923304632358)
variable C13all equal 0.5*(22.7422514314299+23.4269755359332)
variable C23all equal 0.5*(29.617087593597+30.7106647943857)

variable C44all equal 26.4512514819424
variable C55all equal 21.0364199599045
variable C66all equal 18.8308514903659

variable C14all equal 0.5*(0.333180798716+-0.69784607822461)
variable C15all equal 0.5*(-0.0699293521453992+-2.2648315191492)
variable C16all equal 0.5*(-2.5454606710025+-3.97668873601925)

variable C24all equal 0.5*(1.7710303587466+1.33304490635139)
variable C25all equal 0.5*(1.1056078376149+0.361839201226625)
variable C26all equal 0.5*(-3.32229172042235+-0.5990553267381)

variable C34all equal 0.5*(3.64620110664928+3.13049328836287)
variable C35all equal 0.5*(2.87044417743467+0.733196102896725)
variable C36all equal 0.5*(0.528699072058075+-3.71478400405445)

variable C45all equal 0.5*(-1.77377884506681+-1.53525261386043)
variable C46all equal 0.5*(0.13364044688665+1.86193406919965)
variable C56all equal 0.5*(0.14815445383335+1.6990512470926)

# Average moduli for cubic crystals

variable C11cubic equal (57.6298444960848+69.4045872813705+69.6123835821697)/3.0
variable C12cubic equal (22.5126920454559+23.0846134836816+30.1638761939913)/3.0
variable C44cubic equal (26.4512514819424+21.0364199599045+18.8308514903659)/3.0

variable bulkmodulus equal (65.5489384532083+2*25.2537272410429)/3.0
variable shearmodulus1 equal 22.1061743107376
variable shearmodulus2 equal (65.5489384532083-25.2537272410429)/2.0
variable poissonratio equal 1.0/(1.0+65.5489384532083/25.2537272410429)

Elastic Constant 1 1 = 57.6298444960848
Elastic Constant 2 2 = 69.4045872813705
Elastic Constant 3 3 = 69.6123835821697

Elastic Constant 1 2 = 22.5126920454559
Elastic Constant 1 3 = 23.0846134836816
Elastic Constant 2 3 = 30.1638761939913

Elastic Constant 4 4 = 26.4512514819424
Elastic Constant 5 5 = 21.0364199599045
Elastic Constant 6 6 = 18.8308514903659

Elastic Constant 1 4 = -0.182332639754305
Elastic Constant 1 5 = -1.1673804356473
Elastic Constant 1 6 = -3.26107470351088

Elastic Constant 2 4 = 1.552037632549
Elastic Constant 2 5 = 0.733723519420762
Elastic Constant 2 6 = -1.96067352358023

Elastic Constant 3 4 = 3.38834719750608
Elastic Constant 3 5 = 1.8018201401657
Elastic Constant 3 6 = -1.59304246599819

Elastic Constant 4 5 = -1.65451572946362
Elastic Constant 4 6 = 0.99778725804315
Elastic Constant 5 6 = 0.923602850462975

Bulk Modulus = 38.6854643117647 GPa
Shear Modulus 1 = 22.1061743107376 GPa
Shear Modulus 2 = 20.1476056060827 GPa
Poisson Ratio = 0.278116584441218

variable rho equal density
density (g/cm^3) = 1.67799574716002
