units           real
atom_style      full
boundary        p p p

pair_style      lj/cut 5.000
bond_style      harmonic
angle_style     hybrid fourier cosine/periodic
dihedral_style  harmonic

pair_modify     tail yes mix arithmetic
special_bonds   lj/coul 0.0 0.0 1.0
dielectric      1.0
box tilt        large

The 'box' command has been removed and will be ignored

read_data       ./dat/data.333-HD-100C-11-VASP
Reading data file ...
  triclinic box = (0 0 0) to (15.03715 13.454262 17.607396) with tilt (-7.493115 -0.158529 0.080717)
  reading atoms ...
  366 atoms
  scanning bonds ...
  scanning angles ...
  scanning dihedrals ...
  triclinic box = (0 0 0) to (15.03715 13.454262 17.607396) with tilt (-7.493115 -0.158529 0.080717)
  reading bonds ...
  408 bonds
  reading angles ...
  792 angles
  reading dihedrals ...
  1080 dihedrals
Finding 1-2 1-3 1-4 neighbors ...
     4 = max # of 1-2 neighbors
    10 = max # of 1-3 neighbors
    14 = max # of special neighbors

#### Atom Groupings ####
group           fram     id   1:366
366 atoms in group fram
#### END Atom Groupings ####

compute am all property/atom mass
dump        atom_pos all extxyz 100 ./output/333-HD-100C-11-VASP.lammpstrj
dump_modify atom_pos element Si O C H mass yes
thermo          1000
thermo_style    custom step temp pe ke etotal press vol density

variable up equal 2e-2
variable cfac equal 1.0e-4
variable cunits string GPa

# Define minimization parameters
variable etol equal 0.0
variable ftol equal 1.0e-10
variable maxiter equal 100000
variable maxeval equal 100000
variable dmax equal 1.0e-2

variable temp equal 300.0
variable thermal_damp index 100.0
variable pressure_damp index 500.0

fix relax all box/relax aniso 0.0 vmax 0.001
unfix relax
minimize 0 1e-10 100000 100000
Generated 6 of 6 mixed pair_coeff terms from arithmetic mixing rule
For more information see https://docs.lammps.org/err0027 (src/domain.cpp:1052)
Step          Temp          PotEng         KinEng         TotEng         Press          Volume        Density
0   0              2139.4421      0              2139.4421      154145.14      3562.2184      2.0059661
Loop time of 0.0510635 on 1 procs for 74 steps with 366 atoms

Minimization stats:
  Stopping criterion = linesearch alpha is zero
  Energy initial, next-to-last, final =
  Force two-norm initial, final = 941.69298 27.963879
  Force max component initial, final = 98.365125 3.737912
  Final line search alpha, max atom move = 1.5402136e-11 5.7571828e-11
  Iterations, force evaluations = 74 197

# Generating the full routine as described in the paper for UFF
fix nvt_relax   all nvt temp 300 300 100.0
run 100000      # 100 picoseconds
Generated 6 of 6 mixed pair_coeff terms from arithmetic mixing rule
For more information see https://docs.lammps.org/err0027 (src/domain.cpp:1052)
Step          Temp          PotEng         KinEng         TotEng         Press          Volume        Density
74   0              575.12935      0              575.12935      19225.795      3562.2184      2.0059661
Averages over the last 51 of 102 rows, steps 51000 to 100074:
Temp PotEng KinEng TotEng Press Volume Density
295.339 844.865 321.327 1166.19 22929.6 3562.22 2.00597
Loop time of 23.6969 on 1 procs for 100000 steps with 366 atoms

unfix           nvt_relax

fix npt_relax   all npt temp 300 300 100.0 iso 0 0 500.0
run 100000      # 100 picoseconds
Generated 6 of 6 mixed pair_coeff terms from arithmetic mixing rule
For more information see https://docs.lammps.org/err0027 (src/domain.cpp:1052)
Step          Temp          PotEng         KinEng         TotEng         Press          Volume        Density
100074   283.37217      832.87486      308.30769      1141.1826      24075.026      3562.2184      2.0059661
Averages over the last 51 of 102 rows, steps 151000 to 200074:
Temp PotEng KinEng TotEng Press Volume Density
296.646 842.377 322.75 1165.13 132.97 3663.24 1.95068
Loop time of 27.1708 on 1 procs for 100000 steps with 366 atoms

unfix           npt_relax

# run 100000      # 100 picoseconds
# unfix           nvt_heat
#
# run 100000      # 100 picoseconds
# unfix           npt_heat
#
# run 700000      # 700 picoseconds
# unfix           cooling_npt
#
# run 100000      # 100 picoseconds
# unfix           npt_final

# density computation
variable rho equal density
fix integrate  all npt temp 300 300 100.0 iso 0 0 500.0
fix rho50k all ave/time 10 5000 50000 v_rho mode scalar ave one
run 50000
Generated 6 of 6 mixed pair_coeff terms from arithmetic mixing rule
For more information see https://docs.lammps.org/err0027 (src/domain.cpp:1052)
Step          Temp          PotEng         KinEng         TotEng         Press          Volume        Density
200074   301.589        820.93529      328.12753      1149.0628     -702.2118       3652.6334      1.9563117
Averages over the last 26 of 52 rows, steps 226000 to 250074:
Temp PotEng KinEng TotEng Press Volume Density
299.944 839.819 326.338 1166.16 -1274.2 3667.28 1.94851
Loop time of 13.6386 on 1 procs for 50000 steps with 366 atoms

unfix integrate
unfix rho50k

# Compute initial state
fix 3 all box/relax  aniso 0.0
minimize 0 1e-10 100000 100000
Generated 6 of 6 mixed pair_coeff terms from arithmetic mixing rule
 (src/min.cpp:222)
For more information see https://docs.lammps.org/err0027 (src/domain.cpp:1052)
Step          Temp          PotEng         KinEng         TotEng         Press          Volume        Density
250074   308.2674       822.46711      335.39359      1157.8607      2446.8072      3666.2405      1.9490509
Loop time of 0.0391739 on 1 procs for 21 steps with 366 atoms

Minimization stats:
  Stopping criterion = linesearch alpha is zero
  Energy initial, next-to-last, final =
  Force two-norm initial, final = 875.64904 740.91501
  Force max component initial, final = 333.62056 212.30825
  Final line search alpha, max atom move = 1.4037289e-14 2.9802322e-12
  Iterations, force evaluations = 21 124

variable tmp equal pxx
variable pxx0 equal 7886.59260287461
variable tmp equal pyy
variable pyy0 equal 1715.8791267919
variable tmp equal pzz
variable pzz0 equal 1498.91906351973
variable tmp equal pyz
variable pyz0 equal 5361.17754410636
variable tmp equal pxz
variable pxz0 equal -3625.87690227947
variable tmp equal pxy
variable pxy0 equal -678.957969884614

variable tmp equal lx
variable lx0 equal 15.1998067258397
variable tmp equal ly
variable ly0 equal 13.5708756533325
variable tmp equal lz
variable lz0 equal 17.7609541192272

# These formulas define the derivatives w.r.t. strain components
# Constants uses $, variables use v_
variable d1 equal -(v_pxx1-7886.59260287461)/(v_delta/v_len0)*0.0001
variable d2 equal -(v_pyy1-1715.8791267919)/(v_delta/v_len0)*0.0001
variable d3 equal -(v_pzz1-1498.91906351973)/(v_delta/v_len0)*0.0001
variable d4 equal -(v_pyz1-5361.17754410636)/(v_delta/v_len0)*0.0001
variable d5 equal -(v_pxz1--3625.87690227947)/(v_delta/v_len0)*0.0001
variable d6 equal -(v_pxy1--678.957969884614)/(v_delta/v_len0)*0.0001

# Write restart
unfix 3
write_restart restart_333-HD-100C-11-VASP.equil
System init for write_restart ...
Generated 6 of 6 mixed pair_coeff terms from arithmetic mixing rule

# uxx Perturbation

variable dir equal 1
include ./input/displace_333-HD-100C-11-VASP.mod
variable len0 equal 15.1998067258397

# Reset box and simulation parameters

clear
box tilt large

The 'box' command has been removed and will be ignored

read_restart restart_333-HD-100C-11-VASP.equil
Reading restart file ...
  restart file = 10 Sep 2025, LAMMPS = 10 Sep 2025
  restoring atom style full from restart
  triclinic box = (-0.081328363 -0.058306827 -0.07677906) to (15.118478 13.512569 17.684175) with tilt (-7.5580609 -0.15991157 0.081420951)
  restoring pair style lj/cut from restart
  restoring bond style harmonic from restart
  restoring angle style hybrid from restart
  restoring dihedral style harmonic from restart
  366 atoms
  408 bonds
  792 angles
  1080 dihedrals
Finding 1-2 1-3 1-4 neighbors ...
     4 = max # of 1-2 neighbors
    10 = max # of 1-3 neighbors
    14 = max # of special neighbors
  read_restart CPU = 0.002 seconds
include ./input/angles_333-HD-100C-11-VASP.mod
angle_style hybrid fourier cosine/periodic
angle_coeff 1 fourier 221.735285        0.343737        0.374972        0.281246
angle_coeff 2 fourier 157.882480        0.343737        0.374972        0.281246
angle_coeff 3 fourier 114.246973        0.343737        0.374972        0.281246
angle_coeff 4 cosine/periodic 88.853997              -1               3
angle_coeff 5 fourier 90.420412        0.343737        0.374972        0.281246
angle_coeff 6 fourier 75.498766        0.343737        0.374972        0.281246

# Negative deformation

variable delta equal -0.02*15.1998067258397
variable deltaxy equal -0.02*xy
variable deltaxz equal -0.02*xz
variable deltayz equal -0.02*yz
change_box all x delta 0 -0.303996134516794 xy delta 0.151161218535997 xz delta 0.00319823135183286 remap units box
Changing box ...
  triclinic box = (-0.081328363 -0.058306827 -0.07677906) to (14.814482 13.512569 17.684175) with tilt (-7.5580609 -0.15991157 0.081420951)
  triclinic box = (-0.081328363 -0.058306827 -0.07677906) to (14.814482 13.512569 17.684175) with tilt (-7.4068997 -0.15991157 0.081420951)
  triclinic box = (-0.081328363 -0.058306827 -0.07677906) to (14.814482 13.512569 17.684175) with tilt (-7.4068997 -0.15671334 0.081420951)

# Relax atoms positions

minimize 0 1e-10 100000 100000
Generated 6 of 6 mixed pair_coeff terms from arithmetic mixing rule
For more information see https://docs.lammps.org/err0027 (src/domain.cpp:1052)
Step          Temp          E_pair         E_mol          TotEng         Press
250095   308.2674      -377.1985       1232.8347      1191.0298      35835.996
Loop time of 0.034059 on 1 procs for 32 steps with 366 atoms

Minimization stats:
  Stopping criterion = linesearch alpha is zero
  Energy initial, next-to-last, final =
  Force two-norm initial, final = 699.21347 18.488884
  Force max component initial, final = 91.812095 2.5708699
  Final line search alpha, max atom move = 1.9773345e-11 5.0834697e-11
  Iterations, force evaluations = 32 121

# Obtain new stress tensor

variable tmp equal pxx
variable pxx1 equal 28063.885539312
variable tmp equal pyy
variable pyy1 equal 7089.37910923786
variable tmp equal pzz
variable pzz1 equal 6067.48312269662
variable tmp equal pxy
variable pxy1 equal 3538.56702824228
variable tmp equal pxz
variable pxz1 equal -2936.00648013371
variable tmp equal pyz
variable pyz1 equal 1097.4800861567

# Compute elastic constant from pressure tensor

variable C1neg equal 100.886464682187
variable C2neg equal 26.8674999122298
variable C3neg equal 22.8428202958845
variable C4neg equal -21.3184872897483
variable C5neg equal 3.4493521107288
variable C6neg equal 21.0876249906345

# Reset box and simulation parameters

clear
box tilt large

The 'box' command has been removed and will be ignored

read_restart restart_333-HD-100C-11-VASP.equil
Reading restart file ...
  restart file = 10 Sep 2025, LAMMPS = 10 Sep 2025
  restoring atom style full from restart
  triclinic box = (-0.081328363 -0.058306827 -0.07677906) to (15.118478 13.512569 17.684175) with tilt (-7.5580609 -0.15991157 0.081420951)
  restoring pair style lj/cut from restart
  restoring bond style harmonic from restart
  restoring angle style hybrid from restart
  restoring dihedral style harmonic from restart
  366 atoms
  408 bonds
  792 angles
  1080 dihedrals
Finding 1-2 1-3 1-4 neighbors ...
     4 = max # of 1-2 neighbors
    10 = max # of 1-3 neighbors
    14 = max # of special neighbors
  read_restart CPU = 0.001 seconds
include ./input/angles_333-HD-100C-11-VASP.mod
angle_style hybrid fourier cosine/periodic
angle_coeff 1 fourier 221.735285        0.343737        0.374972        0.281246
angle_coeff 2 fourier 157.882480        0.343737        0.374972        0.281246
angle_coeff 3 fourier 114.246973        0.343737        0.374972        0.281246
angle_coeff 4 cosine/periodic 88.853997              -1               3
angle_coeff 5 fourier 90.420412        0.343737        0.374972        0.281246
angle_coeff 6 fourier 75.498766        0.343737        0.374972        0.281246

# Positive deformation

variable delta equal 0.02*15.1998067258397
variable deltaxy equal 0.02*xy
variable deltaxz equal 0.02*xz
variable deltayz equal 0.02*yz
change_box all x delta 0 0.303996134516794 xy delta -0.151161218535997 xz delta -0.00319823135183286 remap units box
Changing box ...
  triclinic box = (-0.081328363 -0.058306827 -0.07677906) to (15.422474 13.512569 17.684175) with tilt (-7.5580609 -0.15991157 0.081420951)
  triclinic box = (-0.081328363 -0.058306827 -0.07677906) to (15.422474 13.512569 17.684175) with tilt (-7.7092221 -0.15991157 0.081420951)
  triclinic box = (-0.081328363 -0.058306827 -0.07677906) to (15.422474 13.512569 17.684175) with tilt (-7.7092221 -0.1631098 0.081420951)

# Relax atoms positions

minimize 0 1e-10 100000 100000
Generated 6 of 6 mixed pair_coeff terms from arithmetic mixing rule
For more information see https://docs.lammps.org/err0027 (src/domain.cpp:1052)
Step          Temp          E_pair         E_mol          TotEng         Press
250095   308.2674      -432.99859      1284.604       1186.999      -27162.194
Loop time of 0.0400384 on 1 procs for 43 steps with 366 atoms

Minimization stats:
  Stopping criterion = linesearch alpha is zero
  Energy initial, next-to-last, final =
  Force two-norm initial, final = 701.14082 11.307218
  Force max component initial, final = 88.165986 1.4849752
  Final line search alpha, max atom move = 7.6743259e-11 1.1396184e-10
  Iterations, force evaluations = 43 139

# Obtain new stress tensor

variable tmp equal pe
variable e1 equal 527.366991338868
variable tmp equal press
variable p1 equal -17069.4873461378
variable tmp equal pxx
variable pxx1 equal -24708.743401564
variable tmp equal pyy
variable pyy1 equal -11901.0520830438
variable tmp equal pzz
variable pzz1 equal -14598.6665538055
variable tmp equal pxy
variable pxy1 equal 3085.29343312722
variable tmp equal pxz
variable pxz1 equal -3911.56899432647
variable tmp equal pyz
variable pyz1 equal 1509.55087119779

# Compute elastic constant from pressure tensor

variable C1pos equal 162.976680022193
variable C2pos equal 68.0846560491785
variable C3pos equal 80.4879280866262
variable C4pos equal 19.2581333645429
variable C5pos equal 1.428460460235
variable C6pos equal -18.8212570150592

# Combine positive and negative

variable C11 equal 0.5*(100.886464682187+162.976680022193)
variable C21 equal 0.5*(26.8674999122298+68.0846560491785)
variable C31 equal 0.5*(22.8428202958845+80.4879280866262)
variable C41 equal 0.5*(-21.3184872897483+19.2581333645429)
variable C51 equal 0.5*(3.4493521107288+1.428460460235)
variable C61 equal 0.5*(21.0876249906345+-18.8212570150592)

# Delete dir to make sure it is not reused

variable dir delete

# uyy Perturbation

variable dir equal 2
include ./input/displace_333-HD-100C-11-VASP.mod
variable len0 equal 13.5708756533325

# Reset box and simulation parameters

clear
box tilt large

The 'box' command has been removed and will be ignored

read_restart restart_333-HD-100C-11-VASP.equil
Reading restart file ...
  restart file = 10 Sep 2025, LAMMPS = 10 Sep 2025
  restoring atom style full from restart
  triclinic box = (-0.081328363 -0.058306827 -0.07677906) to (15.118478 13.512569 17.684175) with tilt (-7.5580609 -0.15991157 0.081420951)
  restoring pair style lj/cut from restart
  restoring bond style harmonic from restart
  restoring angle style hybrid from restart
  restoring dihedral style harmonic from restart
  366 atoms
  408 bonds
  792 angles
  1080 dihedrals
Finding 1-2 1-3 1-4 neighbors ...
     4 = max # of 1-2 neighbors
    10 = max # of 1-3 neighbors
    14 = max # of special neighbors
  read_restart CPU = 0.002 seconds
include ./input/angles_333-HD-100C-11-VASP.mod
angle_style hybrid fourier cosine/periodic
angle_coeff 1 fourier 221.735285        0.343737        0.374972        0.281246
angle_coeff 2 fourier 157.882480        0.343737        0.374972        0.281246
angle_coeff 3 fourier 114.246973        0.343737        0.374972        0.281246
angle_coeff 4 cosine/periodic 88.853997              -1               3
angle_coeff 5 fourier 90.420412        0.343737        0.374972        0.281246
angle_coeff 6 fourier 75.498766        0.343737        0.374972        0.281246

# Negative deformation

variable delta equal -0.02*13.5708756533325
variable deltaxy equal -0.02*xy
variable deltaxz equal -0.02*xz
variable deltayz equal -0.02*yz
change_box all y delta 0 -0.27141751306665 yz delta -0.00162841902759681 remap units box
Changing box ...
  triclinic box = (-0.081328363 -0.058306827 -0.07677906) to (15.118478 13.241151 17.684175) with tilt (-7.5580609 -0.15991157 0.081420951)
  triclinic box = (-0.081328363 -0.058306827 -0.07677906) to (15.118478 13.241151 17.684175) with tilt (-7.5580609 -0.15991157 0.079792532)

# Relax atoms positions

minimize 0 1e-10 100000 100000
Generated 6 of 6 mixed pair_coeff terms from arithmetic mixing rule
For more information see https://docs.lammps.org/err0027 (src/domain.cpp:1052)
Step          Temp          E_pair         E_mol          TotEng         Press
250095   308.2674      -373.95015      1225.7091      1187.1526      36689.874
Loop time of 0.0406361 on 1 procs for 43 steps with 366 atoms

Minimization stats:
  Stopping criterion = linesearch alpha is zero
  Energy initial, next-to-last, final =
  Force two-norm initial, final = 709.35282 15.148986
  Force max component initial, final = 98.043239 2.3601776
  Final line search alpha, max atom move = 2.7812929e-11 6.5643453e-11
  Iterations, force evaluations = 43 141

# Obtain new stress tensor

variable tmp equal pxx
variable pxx1 equal 10854.1291468237
variable tmp equal pyy
variable pyy1 equal 24740.607919415
variable tmp equal pzz
variable pzz1 equal 4752.59628048382
variable tmp equal pxy
variable pxy1 equal 2344.63958486229
variable tmp equal pxz
variable pxz1 equal -3366.46479055467
variable tmp equal pyz
variable pyz1 equal 984.797023334947

# Compute elastic constant from pressure tensor

variable C1neg equal 14.8376827197454
variable C2neg equal 115.123643963115
variable C3neg equal 16.2683860848204
variable C4neg equal -21.8819026038571
variable C5neg equal 1.297060558624
variable C6neg equal 15.1179877737345

# Reset box and simulation parameters

clear
box tilt large

The 'box' command has been removed and will be ignored

read_restart restart_333-HD-100C-11-VASP.equil
Reading restart file ...
  restart file = 10 Sep 2025, LAMMPS = 10 Sep 2025
  restoring atom style full from restart
  triclinic box = (-0.081328363 -0.058306827 -0.07677906) to (15.118478 13.512569 17.684175) with tilt (-7.5580609 -0.15991157 0.081420951)
  restoring pair style lj/cut from restart
  restoring bond style harmonic from restart
  restoring angle style hybrid from restart
  restoring dihedral style harmonic from restart
  366 atoms
  408 bonds
  792 angles
  1080 dihedrals
Finding 1-2 1-3 1-4 neighbors ...
     4 = max # of 1-2 neighbors
    10 = max # of 1-3 neighbors
    14 = max # of special neighbors
  read_restart CPU = 0.001 seconds
include ./input/angles_333-HD-100C-11-VASP.mod
angle_style hybrid fourier cosine/periodic
angle_coeff 1 fourier 221.735285        0.343737        0.374972        0.281246
angle_coeff 2 fourier 157.882480        0.343737        0.374972        0.281246
angle_coeff 3 fourier 114.246973        0.343737        0.374972        0.281246
angle_coeff 4 cosine/periodic 88.853997              -1               3
angle_coeff 5 fourier 90.420412        0.343737        0.374972        0.281246
angle_coeff 6 fourier 75.498766        0.343737        0.374972        0.281246

# Positive deformation

variable delta equal 0.02*13.5708756533325
variable deltaxy equal 0.02*xy
variable deltaxz equal 0.02*xz
variable deltayz equal 0.02*yz
change_box all y delta 0 0.27141751306665 yz delta 0.00162841902759681 remap units box
Changing box ...
  triclinic box = (-0.081328363 -0.058306827 -0.07677906) to (15.118478 13.783986 17.684175) with tilt (-7.5580609 -0.15991157 0.081420951)
  triclinic box = (-0.081328363 -0.058306827 -0.07677906) to (15.118478 13.783986 17.684175) with tilt (-7.5580609 -0.15991157 0.08304937)

# Relax atoms positions

minimize 0 1e-10 100000 100000
Generated 6 of 6 mixed pair_coeff terms from arithmetic mixing rule
For more information see https://docs.lammps.org/err0027 (src/domain.cpp:1052)
Step          Temp          E_pair         E_mol          TotEng         Press
250095   308.2674      -435.15008      1295.1173      1195.3608     -27980.844
Loop time of 0.0305596 on 1 procs for 28 steps with 366 atoms

Minimization stats:
  Stopping criterion = linesearch alpha is zero
  Energy initial, next-to-last, final =
  Force two-norm initial, final = 696.3988 20.547455
  Force max component initial, final = 82.112764 3.0010757
  Final line search alpha, max atom move = 2.1693098e-11 6.510263e-11
  Iterations, force evaluations = 28 113

# Obtain new stress tensor

variable tmp equal pe
variable e1 equal 535.20422232553
variable tmp equal press
variable p1 equal -16999.539896985
variable tmp equal pxx
variable pxx1 equal -8086.58003259343
variable tmp equal pyy
variable pyy1 equal -29549.5119956563
variable tmp equal pzz
variable pzz1 equal -13362.5276627053
variable tmp equal pxy
variable pxy1 equal 3540.82735850475
variable tmp equal pxz
variable pxz1 equal -3737.57084781945
variable tmp equal pyz
variable pyz1 equal 1616.9069306418

# Compute elastic constant from pressure tensor

variable C1pos equal 79.8658631773402
variable C2pos equal 156.326955612241
variable C3pos equal 74.3072336311252
variable C4pos equal 18.7213530673228
variable C5pos equal 0.558469727699901
variable C6pos equal -21.0989266419468

# Combine positive and negative

variable C12 equal 0.5*(14.8376827197454+79.8658631773402)
variable C22 equal 0.5*(115.123643963115+156.326955612241)
variable C32 equal 0.5*(16.2683860848204+74.3072336311252)
variable C42 equal 0.5*(-21.8819026038571+18.7213530673228)
variable C52 equal 0.5*(1.297060558624+0.558469727699901)
variable C62 equal 0.5*(15.1179877737345+-21.0989266419468)

# Delete dir to make sure it is not reused

variable dir delete

# uzz Perturbation

variable dir equal 3
include ./input/displace_333-HD-100C-11-VASP.mod
variable len0 equal 17.7609541192272

# Reset box and simulation parameters

clear
box tilt large

The 'box' command has been removed and will be ignored

read_restart restart_333-HD-100C-11-VASP.equil
Reading restart file ...
  restart file = 10 Sep 2025, LAMMPS = 10 Sep 2025
  restoring atom style full from restart
  triclinic box = (-0.081328363 -0.058306827 -0.07677906) to (15.118478 13.512569 17.684175) with tilt (-7.5580609 -0.15991157 0.081420951)
  restoring pair style lj/cut from restart
  restoring bond style harmonic from restart
  restoring angle style hybrid from restart
  restoring dihedral style harmonic from restart
  366 atoms
  408 bonds
  792 angles
  1080 dihedrals
Finding 1-2 1-3 1-4 neighbors ...
     4 = max # of 1-2 neighbors
    10 = max # of 1-3 neighbors
    14 = max # of special neighbors
  read_restart CPU = 0.001 seconds
include ./input/angles_333-HD-100C-11-VASP.mod
angle_style hybrid fourier cosine/periodic
angle_coeff 1 fourier 221.735285        0.343737        0.374972        0.281246
angle_coeff 2 fourier 157.882480        0.343737        0.374972        0.281246
angle_coeff 3 fourier 114.246973        0.343737        0.374972        0.281246
angle_coeff 4 cosine/periodic 88.853997              -1               3
angle_coeff 5 fourier 90.420412        0.343737        0.374972        0.281246
angle_coeff 6 fourier 75.498766        0.343737        0.374972        0.281246

# Negative deformation

variable delta equal -0.02*17.7609541192272
variable deltaxy equal -0.02*xy
variable deltaxz equal -0.02*xz
variable deltayz equal -0.02*yz
change_box all z delta 0 -0.355219082384544 remap units box
Changing box ...
  triclinic box = (-0.081328363 -0.058306827 -0.07677906) to (15.118478 13.512569 17.328956) with tilt (-7.5580609 -0.15991157 0.081420951)

# Relax atoms positions

minimize 0 1e-10 100000 100000
Generated 6 of 6 mixed pair_coeff terms from arithmetic mixing rule
For more information see https://docs.lammps.org/err0027 (src/domain.cpp:1052)
Step          Temp          E_pair         E_mol          TotEng         Press
250095   308.2674      -371.02145      1222.3592      1186.7314      37602.23
Loop time of 0.034433 on 1 procs for 33 steps with 366 atoms

Minimization stats:
  Stopping criterion = linesearch alpha is zero
  Energy initial, next-to-last, final =
  Force two-norm initial, final = 692.74877 17.578678
  Force max component initial, final = 80.222434 2.2542846
  Final line search alpha, max atom move = 3.8156077e-11 8.6014655e-11
  Iterations, force evaluations = 33 121

# Obtain new stress tensor

variable tmp equal pxx
variable pxx1 equal 10964.9037238966
variable tmp equal pyy
variable pyy1 equal 7989.59455954338
variable tmp equal pzz
variable pzz1 equal 24497.7977681735
variable tmp equal pxy
variable pxy1 equal 3761.19198187009
variable tmp equal pxz
variable pxz1 equal -2563.22093312449
variable tmp equal pyz
variable pyz1 equal 1250.44438940723

# Compute elastic constant from pressure tensor

variable C1neg equal 15.3915556051099
variable C2neg equal 31.3685771637574
variable C3neg equal 114.994393523269
variable C4neg equal -20.5536657734957
variable C5neg equal 5.3132798457749
variable C6neg equal 22.2007497587735

# Reset box and simulation parameters

clear
box tilt large

The 'box' command has been removed and will be ignored

read_restart restart_333-HD-100C-11-VASP.equil
Reading restart file ...
  restart file = 10 Sep 2025, LAMMPS = 10 Sep 2025
  restoring atom style full from restart
  triclinic box = (-0.081328363 -0.058306827 -0.07677906) to (15.118478 13.512569 17.684175) with tilt (-7.5580609 -0.15991157 0.081420951)
  restoring pair style lj/cut from restart
  restoring bond style harmonic from restart
  restoring angle style hybrid from restart
  restoring dihedral style harmonic from restart
  366 atoms
  408 bonds
  792 angles
  1080 dihedrals
Finding 1-2 1-3 1-4 neighbors ...
     4 = max # of 1-2 neighbors
    10 = max # of 1-3 neighbors
    14 = max # of special neighbors
  read_restart CPU = 0.001 seconds
include ./input/angles_333-HD-100C-11-VASP.mod
angle_style hybrid fourier cosine/periodic
angle_coeff 1 fourier 221.735285        0.343737        0.374972        0.281246
angle_coeff 2 fourier 157.882480        0.343737        0.374972        0.281246
angle_coeff 3 fourier 114.246973        0.343737        0.374972        0.281246
angle_coeff 4 cosine/periodic 88.853997              -1               3
angle_coeff 5 fourier 90.420412        0.343737        0.374972        0.281246
angle_coeff 6 fourier 75.498766        0.343737        0.374972        0.281246

# Positive deformation

variable delta equal 0.02*17.7609541192272
variable deltaxy equal 0.02*xy
variable deltaxz equal 0.02*xz
variable deltayz equal 0.02*yz
change_box all z delta 0 0.355219082384544 remap units box
Changing box ...
  triclinic box = (-0.081328363 -0.058306827 -0.07677906) to (15.118478 13.512569 18.039394) with tilt (-7.5580609 -0.15991157 0.081420951)

# Relax atoms positions

minimize 0 1e-10 100000 100000
Generated 6 of 6 mixed pair_coeff terms from arithmetic mixing rule
For more information see https://docs.lammps.org/err0027 (src/domain.cpp:1052)
Step          Temp          E_pair         E_mol          TotEng         Press
250095   308.2674      -439.59857      1297.085       1192.8801     -28876.895
Loop time of 0.0370328 on 1 procs for 42 steps with 366 atoms

Minimization stats:
  Stopping criterion = linesearch alpha is zero
  Energy initial, next-to-last, final =
  Force two-norm initial, final = 711.94896 10.829176
  Force max component initial, final = 99.88788 1.2622979
  Final line search alpha, max atom move = 9.1160022e-11 1.1507111e-10
  Iterations, force evaluations = 42 137

# Obtain new stress tensor

variable tmp equal pe
variable e1 equal 532.845197464781
variable tmp equal press
variable p1 equal -17255.857199524
variable tmp equal pxx
variable pxx1 equal -9164.772531906
variable tmp equal pyy
variable pyy1 equal -11672.6450175811
variable tmp equal pzz
variable pzz1 equal -30930.154049085
variable tmp equal pxy
variable pxy1 equal 3367.35291105609
variable tmp equal pxz
variable pxz1 equal -4593.65704147682
variable tmp equal pyz
variable pyz1 equal 1313.84276580007

# Compute elastic constant from pressure tensor

variable C1pos equal 85.256825673903
variable C2pos equal 66.942620721865
variable C3pos equal 162.145365563024
variable C4pos equal 20.2366738915314
variable C5pos equal 4.83890069598675
variable C6pos equal -20.2315544047035

# Combine positive and negative

variable C13 equal 0.5*(15.3915556051099+85.256825673903)
variable C23 equal 0.5*(31.3685771637574+66.942620721865)
variable C33 equal 0.5*(114.994393523269+162.145365563024)
variable C43 equal 0.5*(-20.5536657734957+20.2366738915314)
variable C53 equal 0.5*(5.3132798457749+4.83890069598675)
variable C63 equal 0.5*(22.2007497587735+-20.2315544047035)

# Delete dir to make sure it is not reused

variable dir delete

# uyz Perturbation

variable dir equal 4
include ./input/displace_333-HD-100C-11-VASP.mod
variable len0 equal 17.7609541192272

# Reset box and simulation parameters

clear
box tilt large

The 'box' command has been removed and will be ignored

read_restart restart_333-HD-100C-11-VASP.equil
Reading restart file ...
  restart file = 10 Sep 2025, LAMMPS = 10 Sep 2025
  restoring atom style full from restart
  triclinic box = (-0.081328363 -0.058306827 -0.07677906) to (15.118478 13.512569 17.684175) with tilt (-7.5580609 -0.15991157 0.081420951)
  restoring pair style lj/cut from restart
  restoring bond style harmonic from restart
  restoring angle style hybrid from restart
  restoring dihedral style harmonic from restart
  366 atoms
  408 bonds
  792 angles
  1080 dihedrals
Finding 1-2 1-3 1-4 neighbors ...
     4 = max # of 1-2 neighbors
    10 = max # of 1-3 neighbors
    14 = max # of special neighbors
  read_restart CPU = 0.001 seconds
include ./input/angles_333-HD-100C-11-VASP.mod
angle_style hybrid fourier cosine/periodic
angle_coeff 1 fourier 221.735285        0.343737        0.374972        0.281246
angle_coeff 2 fourier 157.882480        0.343737        0.374972        0.281246
angle_coeff 3 fourier 114.246973        0.343737        0.374972        0.281246
angle_coeff 4 cosine/periodic 88.853997              -1               3
angle_coeff 5 fourier 90.420412        0.343737        0.374972        0.281246
angle_coeff 6 fourier 75.498766        0.343737        0.374972        0.281246

# Negative deformation

variable delta equal -0.02*17.7609541192272
variable deltaxy equal -0.02*xy
variable deltaxz equal -0.02*xz
variable deltayz equal -0.02*yz
change_box all yz delta -0.355219082384544 remap units box
Changing box ...
  triclinic box = (-0.081328363 -0.058306827 -0.07677906) to (15.118478 13.512569 17.684175) with tilt (-7.5580609 -0.15991157 -0.27379813)

# Relax atoms positions

minimize 0 1e-10 100000 100000
Generated 6 of 6 mixed pair_coeff terms from arithmetic mixing rule
For more information see https://docs.lammps.org/err0027 (src/domain.cpp:1052)
Step          Temp          E_pair         E_mol          TotEng         Press
250095   308.2674      -407.58287      1248.8724      1176.6831      3316.1889
Loop time of 0.0362668 on 1 procs for 39 steps with 366 atoms

Minimization stats:
  Stopping criterion = linesearch alpha is zero
  Energy initial, next-to-last, final =
  Force two-norm initial, final = 692.99872 15.402452
  Force max component initial, final = 85.008178 3.5096957
  Final line search alpha, max atom move = 3.5641031e-11 1.2508917e-10
  Iterations, force evaluations = 39 133

# Obtain new stress tensor

variable tmp equal pxx
variable pxx1 equal -799.496294651121
variable tmp equal pyy
variable pyy1 equal -3029.31216561739
variable tmp equal pzz
variable pzz1 equal -5338.45227360633
variable tmp equal pxy
variable pxy1 equal 3328.58648729055
variable tmp equal pxz
variable pxz1 equal -3797.19287600393
variable tmp equal pyz
variable pyz1 equal 10477.5584891497

# Compute elastic constant from pressure tensor

variable C1neg equal -43.4304444876287
variable C2neg equal -23.7259564620465
variable C3neg equal -34.1868566856303
variable C4neg equal 25.5819047252167
variable C5neg equal -0.8565798686223
variable C6neg equal 20.0377222858758

# Reset box and simulation parameters

clear
box tilt large

The 'box' command has been removed and will be ignored

read_restart restart_333-HD-100C-11-VASP.equil
Reading restart file ...
  restart file = 10 Sep 2025, LAMMPS = 10 Sep 2025
  restoring atom style full from restart
  triclinic box = (-0.081328363 -0.058306827 -0.07677906) to (15.118478 13.512569 17.684175) with tilt (-7.5580609 -0.15991157 0.081420951)
  restoring pair style lj/cut from restart
  restoring bond style harmonic from restart
  restoring angle style hybrid from restart
  restoring dihedral style harmonic from restart
  366 atoms
  408 bonds
  792 angles
  1080 dihedrals
Finding 1-2 1-3 1-4 neighbors ...
     4 = max # of 1-2 neighbors
    10 = max # of 1-3 neighbors
    14 = max # of special neighbors
  read_restart CPU = 0.001 seconds
include ./input/angles_333-HD-100C-11-VASP.mod
angle_style hybrid fourier cosine/periodic
angle_coeff 1 fourier 221.735285        0.343737        0.374972        0.281246
angle_coeff 2 fourier 157.882480        0.343737        0.374972        0.281246
angle_coeff 3 fourier 114.246973        0.343737        0.374972        0.281246
angle_coeff 4 cosine/periodic 88.853997              -1               3
angle_coeff 5 fourier 90.420412        0.343737        0.374972        0.281246
angle_coeff 6 fourier 75.498766        0.343737        0.374972        0.281246

# Positive deformation

variable delta equal 0.02*17.7609541192272
variable deltaxy equal 0.02*xy
variable deltaxz equal 0.02*xz
variable deltayz equal 0.02*yz
change_box all yz delta 0.355219082384544 remap units box
Changing box ...
  triclinic box = (-0.081328363 -0.058306827 -0.07677906) to (15.118478 13.512569 17.684175) with tilt (-7.5580609 -0.15991157 0.43664003)

# Relax atoms positions

minimize 0 1e-10 100000 100000
Generated 6 of 6 mixed pair_coeff terms from arithmetic mixing rule
For more information see https://docs.lammps.org/err0027 (src/domain.cpp:1052)
Step          Temp          E_pair         E_mol          TotEng         Press
250095   308.2674      -407.12688      1236.3958      1164.6625      3713.0376
Loop time of 0.0363609 on 1 procs for 38 steps with 366 atoms

Minimization stats:
  Stopping criterion = linesearch alpha is zero
  Energy initial, next-to-last, final =
  Force two-norm initial, final = 689.08149 13.508402
  Force max component initial, final = 95.390234 1.6733596
  Final line search alpha, max atom move = 4.1016371e-11 6.8635137e-11
  Iterations, force evaluations = 38 133

# Obtain new stress tensor

variable tmp equal pe
variable e1 equal 512.356221632182
variable tmp equal press
variable p1 equal -2447.95908766773
variable tmp equal pxx
variable pxx1 equal 498.686437064681
variable tmp equal pyy
variable pyy1 equal -3087.4354223346
variable tmp equal pzz
variable pzz1 equal -4755.12827773327
variable tmp equal pxy
variable pxy1 equal 3789.64954301929
variable tmp equal pxz
variable pxz1 equal -3063.75326272601
variable tmp equal pyz
variable pyz1 equal -8415.63154994701

# Compute elastic constant from pressure tensor

variable C1pos equal 36.9395308290497
variable C2pos equal 24.0165727456325
variable C3pos equal 31.270236706265
variable C4pos equal 68.8840454702669
variable C5pos equal -2.8106181977673
variable C6pos equal -22.3430375645195

# Combine positive and negative

variable C14 equal 0.5*(-43.4304444876287+36.9395308290497)
variable C24 equal 0.5*(-23.7259564620465+24.0165727456325)
variable C34 equal 0.5*(-34.1868566856303+31.270236706265)
variable C44 equal 0.5*(25.5819047252167+68.8840454702669)
variable C54 equal 0.5*(-0.8565798686223+-2.8106181977673)
variable C64 equal 0.5*(20.0377222858758+-22.3430375645195)

# Delete dir to make sure it is not reused

variable dir delete

# uxz Perturbation

variable dir equal 5
include ./input/displace_333-HD-100C-11-VASP.mod
variable len0 equal 17.7609541192272

# Reset box and simulation parameters

clear
box tilt large

The 'box' command has been removed and will be ignored

read_restart restart_333-HD-100C-11-VASP.equil
Reading restart file ...
  restart file = 10 Sep 2025, LAMMPS = 10 Sep 2025
  restoring atom style full from restart
  triclinic box = (-0.081328363 -0.058306827 -0.07677906) to (15.118478 13.512569 17.684175) with tilt (-7.5580609 -0.15991157 0.081420951)
  restoring pair style lj/cut from restart
  restoring bond style harmonic from restart
  restoring angle style hybrid from restart
  restoring dihedral style harmonic from restart
  366 atoms
  408 bonds
  792 angles
  1080 dihedrals
Finding 1-2 1-3 1-4 neighbors ...
     4 = max # of 1-2 neighbors
    10 = max # of 1-3 neighbors
    14 = max # of special neighbors
  read_restart CPU = 0.001 seconds
include ./input/angles_333-HD-100C-11-VASP.mod
angle_style hybrid fourier cosine/periodic
angle_coeff 1 fourier 221.735285        0.343737        0.374972        0.281246
angle_coeff 2 fourier 157.882480        0.343737        0.374972        0.281246
angle_coeff 3 fourier 114.246973        0.343737        0.374972        0.281246
angle_coeff 4 cosine/periodic 88.853997              -1               3
angle_coeff 5 fourier 90.420412        0.343737        0.374972        0.281246
angle_coeff 6 fourier 75.498766        0.343737        0.374972        0.281246

# Negative deformation

variable delta equal -0.02*17.7609541192272
variable deltaxy equal -0.02*xy
variable deltaxz equal -0.02*xz
variable deltayz equal -0.02*yz
change_box all xz delta -0.355219082384544 remap units box
Changing box ...
  triclinic box = (-0.081328363 -0.058306827 -0.07677906) to (15.118478 13.512569 17.684175) with tilt (-7.5580609 -0.51513065 0.081420951)

# Relax atoms positions

minimize 0 1e-10 100000 100000
Generated 6 of 6 mixed pair_coeff terms from arithmetic mixing rule
For more information see https://docs.lammps.org/err0027 (src/domain.cpp:1052)
Step          Temp          E_pair         E_mol          TotEng         Press
250095   308.2674      -406.73377      1238.1611      1166.8209      4124.7813
Loop time of 0.0381368 on 1 procs for 41 steps with 366 atoms

Minimization stats:
  Stopping criterion = linesearch alpha is zero
  Energy initial, next-to-last, final =
  Force two-norm initial, final = 696.4023 12.349614
  Force max component initial, final = 92.94656 1.6494429
  Final line search alpha, max atom move = 4.5102314e-11 7.4393691e-11
  Iterations, force evaluations = 41 141

# Obtain new stress tensor

variable tmp equal pxx
variable pxx1 equal 497.017863063677
variable tmp equal pyy
variable pyy1 equal -2935.19656760049
variable tmp equal pzz
variable pzz1 equal -4313.39688939461
variable tmp equal pxy
variable pxy1 equal 3729.13301488364
variable tmp equal pxz
variable pxz1 equal 6095.01946318245
variable tmp equal pyz
variable pyz1 equal 640.516406445107

# Compute elastic constant from pressure tensor

variable C1neg equal -36.9478736990547
variable C2neg equal -23.255378471962
variable C3neg equal -29.0615797645717
variable C4neg equal -23.6033056883063
variable C5neg equal 48.6044818273096
variable C6neg equal 22.0404549238413

# Reset box and simulation parameters

clear
box tilt large

The 'box' command has been removed and will be ignored

read_restart restart_333-HD-100C-11-VASP.equil
Reading restart file ...
  restart file = 10 Sep 2025, LAMMPS = 10 Sep 2025
  restoring atom style full from restart
  triclinic box = (-0.081328363 -0.058306827 -0.07677906) to (15.118478 13.512569 17.684175) with tilt (-7.5580609 -0.15991157 0.081420951)
  restoring pair style lj/cut from restart
  restoring bond style harmonic from restart
  restoring angle style hybrid from restart
  restoring dihedral style harmonic from restart
  366 atoms
  408 bonds
  792 angles
  1080 dihedrals
Finding 1-2 1-3 1-4 neighbors ...
     4 = max # of 1-2 neighbors
    10 = max # of 1-3 neighbors
    14 = max # of special neighbors
  read_restart CPU = 0.001 seconds
include ./input/angles_333-HD-100C-11-VASP.mod
angle_style hybrid fourier cosine/periodic
angle_coeff 1 fourier 221.735285        0.343737        0.374972        0.281246
angle_coeff 2 fourier 157.882480        0.343737        0.374972        0.281246
angle_coeff 3 fourier 114.246973        0.343737        0.374972        0.281246
angle_coeff 4 cosine/periodic 88.853997              -1               3
angle_coeff 5 fourier 90.420412        0.343737        0.374972        0.281246
angle_coeff 6 fourier 75.498766        0.343737        0.374972        0.281246

# Positive deformation

variable delta equal 0.02*17.7609541192272
variable deltaxy equal 0.02*xy
variable deltaxz equal 0.02*xz
variable deltayz equal 0.02*yz
change_box all xz delta 0.355219082384544 remap units box
Changing box ...
  triclinic box = (-0.081328363 -0.058306827 -0.07677906) to (15.118478 13.512569 17.684175) with tilt (-7.5580609 0.19530751 0.081420951)

# Relax atoms positions

minimize 0 1e-10 100000 100000
Generated 6 of 6 mixed pair_coeff terms from arithmetic mixing rule
For more information see https://docs.lammps.org/err0027 (src/domain.cpp:1052)
Step          Temp          E_pair         E_mol          TotEng         Press
250095   308.2674      -408.83668      1248.2009      1174.7579      2850.159
Loop time of 0.0310891 on 1 procs for 29 steps with 366 atoms

Minimization stats:
  Stopping criterion = linesearch alpha is zero
  Energy initial, next-to-last, final =
  Force two-norm initial, final = 688.98061 18.763322
  Force max component initial, final = 87.177185 2.9659886
  Final line search alpha, max atom move = 1.9442927e-11 5.7667501e-11
  Iterations, force evaluations = 29 115

# Obtain new stress tensor

variable tmp equal pe
variable e1 equal 520.128028173054
variable tmp equal press
variable p1 equal -2647.69344137398
variable tmp equal pxx
variable pxx1 equal -235.817291381844
variable tmp equal pyy
variable pyy1 equal -2649.50626052755
variable tmp equal pzz
variable pzz1 equal -5057.75677221255
variable tmp equal pxy
variable pxy1 equal 3239.11959494539
variable tmp equal pxz
variable pxz1 equal -14292.1314028003
variable tmp equal pyz
variable pyz1 equal 1845.17977092722

# Compute elastic constant from pressure tensor

variable C1pos equal 40.6120494712823
variable C2pos equal 21.8269269365972
variable C3pos equal 32.7833791786614
variable C4pos equal 17.5799888658957
variable C5pos equal 53.3312725026042
variable C6pos equal -19.59038782415

# Combine positive and negative

variable C15 equal 0.5*(-36.9478736990547+40.6120494712823)
variable C25 equal 0.5*(-23.255378471962+21.8269269365972)
variable C35 equal 0.5*(-29.0615797645717+32.7833791786614)
variable C45 equal 0.5*(-23.6033056883063+17.5799888658957)
variable C55 equal 0.5*(48.6044818273096+53.3312725026042)
variable C65 equal 0.5*(22.0404549238413+-19.59038782415)

# Delete dir to make sure it is not reused

variable dir delete

# uxy Perturbation

variable dir equal 6
include ./input/displace_333-HD-100C-11-VASP.mod
variable len0 equal 13.5708756533325

# Reset box and simulation parameters

clear
box tilt large

The 'box' command has been removed and will be ignored

read_restart restart_333-HD-100C-11-VASP.equil
Reading restart file ...
  restart file = 10 Sep 2025, LAMMPS = 10 Sep 2025
  restoring atom style full from restart
  triclinic box = (-0.081328363 -0.058306827 -0.07677906) to (15.118478 13.512569 17.684175) with tilt (-7.5580609 -0.15991157 0.081420951)
  restoring pair style lj/cut from restart
  restoring bond style harmonic from restart
  restoring angle style hybrid from restart
  restoring dihedral style harmonic from restart
  366 atoms
  408 bonds
  792 angles
  1080 dihedrals
Finding 1-2 1-3 1-4 neighbors ...
     4 = max # of 1-2 neighbors
    10 = max # of 1-3 neighbors
    14 = max # of special neighbors
  read_restart CPU = 0.001 seconds
include ./input/angles_333-HD-100C-11-VASP.mod
angle_style hybrid fourier cosine/periodic
angle_coeff 1 fourier 221.735285        0.343737        0.374972        0.281246
angle_coeff 2 fourier 157.882480        0.343737        0.374972        0.281246
angle_coeff 3 fourier 114.246973        0.343737        0.374972        0.281246
angle_coeff 4 cosine/periodic 88.853997              -1               3
angle_coeff 5 fourier 90.420412        0.343737        0.374972        0.281246
angle_coeff 6 fourier 75.498766        0.343737        0.374972        0.281246

# Negative deformation

variable delta equal -0.02*13.5708756533325
variable deltaxy equal -0.02*xy
variable deltaxz equal -0.02*xz
variable deltayz equal -0.02*yz
change_box all xy delta -0.27141751306665 remap units box
Changing box ...
  triclinic box = (-0.081328363 -0.058306827 -0.07677906) to (15.118478 13.512569 17.684175) with tilt (-7.8294784 -0.15991157 0.081420951)

# Relax atoms positions

minimize 0 1e-10 100000 100000
Generated 6 of 6 mixed pair_coeff terms from arithmetic mixing rule
For more information see https://docs.lammps.org/err0027 (src/domain.cpp:1052)
Step          Temp          E_pair         E_mol          TotEng         Press
250095   308.2674      -404.91401      1239.344       1169.8236      3413.3787
Loop time of 0.0435141 on 1 procs for 55 steps with 366 atoms

Minimization stats:
  Stopping criterion = linesearch alpha is zero
  Energy initial, next-to-last, final =
  Force two-norm initial, final = 685.19989 8.54883
  Force max component initial, final = 84.153239 1.308661
  Final line search alpha, max atom move = 1.5396938e-10 2.0149373e-10
  Iterations, force evaluations = 55 161

# Obtain new stress tensor

variable tmp equal pxx
variable pxx1 equal 487.930804774447
variable tmp equal pyy
variable pyy1 equal -4360.56444959626
variable tmp equal pzz
variable pzz1 equal -5014.38515737423
variable tmp equal pxy
variable pxy1 equal 12101.4520146441
variable tmp equal pxz
variable pxz1 equal -3207.61250161137
variable tmp equal pyz
variable pyz1 equal 347.795419262495

# Compute elastic constant from pressure tensor

variable C1neg equal -36.9933089905008
variable C2neg equal -30.3822178819408
variable C3neg equal -32.5665211044698
variable C4neg equal -25.0669106242193
variable C5neg equal 2.0913220033405
variable C6neg equal 63.9020499226436

# Reset box and simulation parameters

clear
box tilt large

The 'box' command has been removed and will be ignored

read_restart restart_333-HD-100C-11-VASP.equil
Reading restart file ...
  restart file = 10 Sep 2025, LAMMPS = 10 Sep 2025
  restoring atom style full from restart
  triclinic box = (-0.081328363 -0.058306827 -0.07677906) to (15.118478 13.512569 17.684175) with tilt (-7.5580609 -0.15991157 0.081420951)
  restoring pair style lj/cut from restart
  restoring bond style harmonic from restart
  restoring angle style hybrid from restart
  restoring dihedral style harmonic from restart
  366 atoms
  408 bonds
  792 angles
  1080 dihedrals
Finding 1-2 1-3 1-4 neighbors ...
     4 = max # of 1-2 neighbors
    10 = max # of 1-3 neighbors
    14 = max # of special neighbors
  read_restart CPU = 0.001 seconds
include ./input/angles_333-HD-100C-11-VASP.mod
angle_style hybrid fourier cosine/periodic
angle_coeff 1 fourier 221.735285        0.343737        0.374972        0.281246
angle_coeff 2 fourier 157.882480        0.343737        0.374972        0.281246
angle_coeff 3 fourier 114.246973        0.343737        0.374972        0.281246
angle_coeff 4 cosine/periodic 88.853997              -1               3
angle_coeff 5 fourier 90.420412        0.343737        0.374972        0.281246
angle_coeff 6 fourier 75.498766        0.343737        0.374972        0.281246

# Positive deformation

variable delta equal 0.02*13.5708756533325
variable deltaxy equal 0.02*xy
variable deltaxz equal 0.02*xz
variable deltayz equal 0.02*yz
change_box all xy delta 0.27141751306665 remap units box
Changing box ...
  triclinic box = (-0.081328363 -0.058306827 -0.07677906) to (15.118478 13.512569 17.684175) with tilt (-7.2866434 -0.15991157 0.081420951)

# Relax atoms positions

minimize 0 1e-10 100000 100000
Generated 6 of 6 mixed pair_coeff terms from arithmetic mixing rule
For more information see https://docs.lammps.org/err0027 (src/domain.cpp:1052)
Step          Temp          E_pair         E_mol          TotEng         Press
250095   308.2674      -409.26818      1243.8596      1169.985       3622.7064
Loop time of 0.0367516 on 1 procs for 40 steps with 366 atoms

Minimization stats:
  Stopping criterion = linesearch alpha is zero
  Energy initial, next-to-last, final =
  Force two-norm initial, final = 698.03061 13.3609
  Force max component initial, final = 95.69216 1.9118747
  Final line search alpha, max atom move = 3.8792085e-11 7.4165606e-11
  Iterations, force evaluations = 40 135

# Obtain new stress tensor

variable tmp equal pe
variable e1 equal 508.721687164213
variable tmp equal press
variable p1 equal -2635.01368643844
variable tmp equal pxx
variable pxx1 equal -228.579658876605
variable tmp equal pyy
variable pyy1 equal -2259.56748180747
variable tmp equal pzz
variable pzz1 equal -5416.89391863125
variable tmp equal pxy
variable pxy1 equal -4922.99333218066
variable tmp equal pxz
variable pxz1 equal -3492.20165271149
variable tmp equal pyz
variable pyz1 equal 1315.36230497952

# Compute elastic constant from pressure tensor

variable C1pos equal 40.5758613087561
variable C2pos equal 19.8772330429968
variable C3pos equal 34.5790649107549
variable C4pos equal 20.2290761956342
variable C5pos equal -0.668376247839899
variable C6pos equal 21.2201768114802

# Combine positive and negative

variable C16 equal 0.5*(-36.9933089905008+40.5758613087561)
variable C26 equal 0.5*(-30.3822178819408+19.8772330429968)
variable C36 equal 0.5*(-32.5665211044698+34.5790649107549)
variable C46 equal 0.5*(-25.0669106242193+20.2290761956342)
variable C56 equal 0.5*(2.0913220033405+-0.668376247839899)
variable C66 equal 0.5*(63.9020499226436+21.2201768114802)

# Delete dir to make sure it is not reused

variable dir delete

# Output final values

variable C11all equal 131.93157235219
variable C22all equal 135.725299787678
variable C33all equal 138.569879543146

variable C12all equal 0.5*(47.3517729485428+47.4760779807042)
variable C13all equal 0.5*(50.3241906395064+51.6653741912554)
variable C23all equal 0.5*(49.1555989428112+45.2878098579728)

variable C44all equal 47.2329750977418
variable C55all equal 50.9678771649569
variable C66all equal 42.5611133670619

variable C14all equal 0.5*(-3.2454568292895+-1.0301769626027)
variable C15all equal 0.5*(1.8320878861138+2.4389062854819)
variable C16all equal 0.5*(1.79127615912765+1.13318398778765)

variable C24all equal 0.5*(0.145308141793+-1.58027476826715)
variable C25all equal 0.5*(-0.7142257676824+0.92776514316195)
variable C26all equal 0.5*(-5.252492419472+-2.99046943410615)

variable C34all equal 0.5*(-1.45830998968265+-0.158495940982149)
variable C35all equal 0.5*(1.86089970704485+5.07609027088083)
variable C36all equal 0.5*(1.00627190314255+0.984597677035001)

variable C45all equal 0.5*(-3.0116584112053+-1.8335990331948)
variable C46all equal 0.5*(-2.41891721429255+-1.15265763932185)
variable C56all equal 0.5*(0.7114728777503+1.22503354984565)

# Average moduli for cubic crystals

variable C11cubic equal (131.93157235219+135.725299787678+138.569879543146)/3.0
variable C12cubic equal (47.4139254646235+50.9947824153809+47.221704400392)/3.0
variable C44cubic equal (47.2329750977418+50.9678771649569+42.5611133670619)/3.0

variable bulkmodulus equal (135.408917227671+2*48.5434707601321)/3.0
variable shearmodulus1 equal 46.9206552099202
variable shearmodulus2 equal (135.408917227671-48.5434707601321)/2.0
variable poissonratio equal 1.0/(1.0+135.408917227671/48.5434707601321)

Elastic Constant 1 1 = 131.93157235219
Elastic Constant 2 2 = 135.725299787678
Elastic Constant 3 3 = 138.569879543146

Elastic Constant 1 2 = 47.4139254646235
Elastic Constant 1 3 = 50.9947824153809
Elastic Constant 2 3 = 47.221704400392

Elastic Constant 4 4 = 47.2329750977418
Elastic Constant 5 5 = 50.9678771649569
Elastic Constant 6 6 = 42.5611133670619

Elastic Constant 1 4 = -2.1378168959461
Elastic Constant 1 5 = 2.13549708579785
Elastic Constant 1 6 = 1.46223007345765

Elastic Constant 2 4 = -0.717483313237075
Elastic Constant 2 5 = 0.106769687739775
Elastic Constant 2 6 = -4.12148092678908

Elastic Constant 3 4 = -0.808402965332399
Elastic Constant 3 5 = 3.46849498896284
Elastic Constant 3 6 = 0.995434790088775

Elastic Constant 4 5 = -2.42262872220005
Elastic Constant 4 6 = -1.7857874268072
Elastic Constant 5 6 = 0.968253213797975

Bulk Modulus = 77.4986195826451 GPa
Shear Modulus 1 = 46.9206552099202 GPa
Shear Modulus 2 = 43.4327232337695 GPa
Poisson Ratio = 0.263891495463221

variable rho equal density
density (g/cm^3) = 1.9504369232761
