units           real
atom_style      full
boundary        p p p

pair_style      lj/cut 5.000
bond_style      harmonic
angle_style     hybrid cosine/periodic fourier
dihedral_style  harmonic

pair_modify     tail yes mix arithmetic
special_bonds   lj/coul 0.0 0.0 1.0
dielectric      1.0
box tilt        large

The 'box' command has been removed and will be ignored

read_data       ./dat/data.333-EXP-11-vasp
Reading data file ...
  triclinic box = (0 0 0) to (15.62386 12.410805 16.075452) with tilt (-8.379751 1.194995 0.431155)
  reading atoms ...
  274 atoms
  scanning bonds ...
  scanning angles ...
  scanning dihedrals ...
  triclinic box = (0 0 0) to (15.62386 12.410805 16.075452) with tilt (-8.379751 1.194995 0.431155)
  reading bonds ...
  294 bonds
  reading angles ...
  557 angles
  reading dihedrals ...
  696 dihedrals
Finding 1-2 1-3 1-4 neighbors ...
     4 = max # of 1-2 neighbors
     8 = max # of 1-3 neighbors
    12 = max # of special neighbors

#### Atom Groupings ####
group           fram     id   1:274
274 atoms in group fram
#### END Atom Groupings ####

compute am all property/atom mass
dump        atom_pos all extxyz 100 ./output/333-EXP-11-vasp.lammpstrj
dump_modify atom_pos element Si C O H mass yes
thermo          1000
thermo_style    custom step temp pe ke etotal press vol density

variable up equal 2e-2
variable cfac equal 1.0e-4
variable cunits string GPa

# Define minimization parameters
variable etol equal 0.0
variable ftol equal 1.0e-10
variable maxiter equal 100000
variable maxeval equal 100000
variable dmax equal 1.0e-2

variable temp equal 300.0
variable thermal_damp index 100.0
variable pressure_damp index 500.0

fix relax all box/relax aniso 0.0 vmax 0.001
unfix relax
minimize 0 1e-10 100000 100000
Generated 6 of 6 mixed pair_coeff terms from arithmetic mixing rule
For more information see https://docs.lammps.org/err0027 (src/domain.cpp:1052)
Step          Temp          PotEng         KinEng         TotEng         Press          Volume        Density
0   0              860.87634      0              860.87634      82360.481      3117.1054      1.6256471
Loop time of 0.036271 on 1 procs for 85 steps with 274 atoms

Minimization stats:
  Stopping criterion = linesearch alpha is zero
  Energy initial, next-to-last, final =
  Force two-norm initial, final = 777.55958 11.762295
  Force max component initial, final = 89.698911 2.3354187
  Final line search alpha, max atom move = 6.855688e-11 1.6010902e-10
  Iterations, force evaluations = 85 224

# Generating the full routine as described in the paper for UFF
fix nvt_relax   all nvt temp 300 300 100.0
run 100000      # 100 picoseconds
Generated 6 of 6 mixed pair_coeff terms from arithmetic mixing rule
For more information see https://docs.lammps.org/err0027 (src/domain.cpp:1052)
Step          Temp          PotEng         KinEng         TotEng         Press          Volume        Density
85   0             -80.260806      0             -80.260806      8077.9922      3117.1054      1.6256471
Averages over the last 51 of 102 rows, steps 51000 to 100085:
Temp PotEng KinEng TotEng Press Volume Density
302.302 141.359 246.002 387.361 16023 3117.11 1.62565
Loop time of 16.9307 on 1 procs for 100000 steps with 274 atoms

unfix           nvt_relax

fix npt_relax   all npt temp 300 300 100.0 iso 0 0 500.0
run 100000      # 100 picoseconds
Generated 6 of 6 mixed pair_coeff terms from arithmetic mixing rule
For more information see https://docs.lammps.org/err0027 (src/domain.cpp:1052)
Step          Temp          PotEng         KinEng         TotEng         Press          Volume        Density
100085   313.60482      148.16355      255.19941      403.36296      14127.811      3117.1054      1.6256471
Averages over the last 51 of 102 rows, steps 151000 to 200085:
Temp PotEng KinEng TotEng Press Volume Density
296.744 133.047 241.479 374.526 743.733 3331.15 1.52125
Loop time of 19.0334 on 1 procs for 100000 steps with 274 atoms

unfix           npt_relax

# run 100000      # 100 picoseconds
# unfix           nvt_heat
#
# run 100000      # 100 picoseconds
# unfix           npt_heat
#
# run 700000      # 700 picoseconds
# unfix           cooling_npt
#
# run 100000      # 100 picoseconds
# unfix           npt_final

# density computation
variable rho equal density
fix integrate  all npt temp 300 300 100.0 iso 0 0 500.0
fix rho50k all ave/time 10 5000 50000 v_rho mode scalar ave one
run 50000
Generated 6 of 6 mixed pair_coeff terms from arithmetic mixing rule
For more information see https://docs.lammps.org/err0027 (src/domain.cpp:1052)
Step          Temp          PotEng         KinEng         TotEng         Press          Volume        Density
200085   306.50599      141.44123      249.42266      390.86389      1744.3211      3330.4181      1.5215246
Averages over the last 26 of 52 rows, steps 226000 to 250085:
Temp PotEng KinEng TotEng Press Volume Density
298.769 131.431 243.127 374.558 -376.379 3333.83 1.52003
Loop time of 8.53278 on 1 procs for 50000 steps with 274 atoms

unfix integrate
unfix rho50k

# Compute initial state
fix 3 all box/relax  aniso 0.0
minimize 0 1e-10 100000 100000
Generated 6 of 6 mixed pair_coeff terms from arithmetic mixing rule
 (src/min.cpp:222)
For more information see https://docs.lammps.org/err0027 (src/domain.cpp:1052)
Step          Temp          PotEng         KinEng         TotEng         Press          Volume        Density
250085   268.28922      126.26494      218.32334      344.58828     -6576.9081      3347.0027      1.5139854
Loop time of 0.0710063 on 1 procs for 352 steps with 274 atoms

Minimization stats:
  Stopping criterion = linesearch alpha is zero
  Energy initial, next-to-last, final =
  Force two-norm initial, final = 1030.1261 85.893786
  Force max component initial, final = 642.4884 11.904008
  Final line search alpha, max atom move = 1.0014215e-12 1.1920929e-11
  Iterations, force evaluations = 352 485

variable tmp equal pxx
variable pxx0 equal 3295.13536909789
variable tmp equal pyy
variable pyy0 equal 3189.69286459964
variable tmp equal pzz
variable pzz0 equal 3268.77441037269
variable tmp equal pyz
variable pyz0 equal 2939.53151042336
variable tmp equal pxz
variable pxz0 equal -2028.59529121235
variable tmp equal pxy
variable pxy0 equal 2340.82222620013

variable tmp equal lx
variable lx0 equal 15.906876969082
variable tmp equal ly
variable ly0 equal 12.6505308218205
variable tmp equal lz
variable lz0 equal 16.4872934751279

# These formulas define the derivatives w.r.t. strain components
# Constants uses $, variables use v_
variable d1 equal -(v_pxx1-3295.13536909789)/(v_delta/v_len0)*0.0001
variable d2 equal -(v_pyy1-3189.69286459964)/(v_delta/v_len0)*0.0001
variable d3 equal -(v_pzz1-3268.77441037269)/(v_delta/v_len0)*0.0001
variable d4 equal -(v_pyz1-2939.53151042336)/(v_delta/v_len0)*0.0001
variable d5 equal -(v_pxz1--2028.59529121235)/(v_delta/v_len0)*0.0001
variable d6 equal -(v_pxy1-2340.82222620013)/(v_delta/v_len0)*0.0001

# Write restart
unfix 3
write_restart restart_333-EXP-11-vasp.equil
System init for write_restart ...
Generated 6 of 6 mixed pair_coeff terms from arithmetic mixing rule

# uxx Perturbation

variable dir equal 1
include ./input/displace_333-EXP-11-vasp.mod
variable len0 equal 15.906876969082

# Reset box and simulation parameters

clear
box tilt large

The 'box' command has been removed and will be ignored

read_restart restart_333-EXP-11-vasp.equil
Reading restart file ...
  restart file = 10 Sep 2025, LAMMPS = 10 Sep 2025
  restoring atom style full from restart
  triclinic box = (-0.14150848 -0.11986291 -0.20592074) to (15.765368 12.530668 16.281373) with tilt (-8.5416134 1.2256099 0.44220088)
  restoring pair style lj/cut from restart
  restoring bond style harmonic from restart
  restoring angle style hybrid from restart
  restoring dihedral style harmonic from restart
  274 atoms
  294 bonds
  557 angles
  696 dihedrals
Finding 1-2 1-3 1-4 neighbors ...
     4 = max # of 1-2 neighbors
     8 = max # of 1-3 neighbors
    12 = max # of special neighbors
  read_restart CPU = 0.002 seconds
include ./input/angles_333-EXP-11-vasp.mod
angle_style hybrid fourier cosine/periodic
angle_coeff 1 fourier 157.882480        0.343737        0.374972        0.281246
angle_coeff 2 fourier 221.735285        0.343737        0.374972        0.281246
angle_coeff 3 fourier 83.380072        0.343737        0.374972        0.281246
angle_coeff 4 fourier 58.020602        0.343737        0.374972        0.281246
angle_coeff 5 fourier 114.246973        0.343737        0.374972        0.281246
angle_coeff 6 fourier 32.417871        0.343737        0.374972        0.281246
angle_coeff 7 fourier 90.420412        0.343737        0.374972        0.281246
angle_coeff 8 fourier 75.498766        0.343737        0.374972        0.281246
angle_coeff 9 cosine/periodic 88.853997              -1               3

# Negative deformation

variable delta equal -0.02*15.906876969082
variable deltaxy equal -0.02*xy
variable deltaxz equal -0.02*xz
variable deltayz equal -0.02*yz
change_box all x delta 0 -0.31813753938164 xy delta 0.170832268019163 xz delta -0.0245121981843012 remap units box
Changing box ...
  triclinic box = (-0.14150848 -0.11986291 -0.20592074) to (15.447231 12.530668 16.281373) with tilt (-8.5416134 1.2256099 0.44220088)
  triclinic box = (-0.14150848 -0.11986291 -0.20592074) to (15.447231 12.530668 16.281373) with tilt (-8.3707811 1.2256099 0.44220088)
  triclinic box = (-0.14150848 -0.11986291 -0.20592074) to (15.447231 12.530668 16.281373) with tilt (-8.3707811 1.2010977 0.44220088)

# Relax atoms positions

minimize 0 1e-10 100000 100000
Generated 6 of 6 mixed pair_coeff terms from arithmetic mixing rule
For more information see https://docs.lammps.org/err0027 (src/domain.cpp:1052)
Step          Temp          E_pair         E_mol          TotEng         Press
250437   268.28922     -337.48869      302.97425      183.80891      25967.906
Loop time of 0.0152032 on 1 procs for 33 steps with 274 atoms

Minimization stats:
  Stopping criterion = linesearch alpha is zero
  Energy initial, next-to-last, final =
  Force two-norm initial, final = 183.93578 17.538626
  Force max component initial, final = 23.101059 2.2227587
  Final line search alpha, max atom move = 2.3680278e-11 5.2635544e-11
  Iterations, force evaluations = 33 122

# Obtain new stress tensor

variable tmp equal pxx
variable pxx1 equal 6165.98159397743
variable tmp equal pyy
variable pyy1 equal 332.306740401447
variable tmp equal pzz
variable pzz1 equal 5018.36721446477
variable tmp equal pxy
variable pxy1 equal 5060.3787963347
variable tmp equal pxz
variable pxz1 equal -2897.43854710008
variable tmp equal pyz
variable pyz1 equal 2261.01703168179

# Compute elastic constant from pressure tensor

variable C1neg equal 14.3542311243977
variable C2neg equal -14.286930620991
variable C3neg equal 8.7479640204604
variable C4neg equal -3.39257239370785
variable C5neg equal -4.34421627943865
variable C6neg equal 13.5977828506729

# Reset box and simulation parameters

clear
box tilt large

The 'box' command has been removed and will be ignored

read_restart restart_333-EXP-11-vasp.equil
Reading restart file ...
  restart file = 10 Sep 2025, LAMMPS = 10 Sep 2025
  restoring atom style full from restart
  triclinic box = (-0.14150848 -0.11986291 -0.20592074) to (15.765368 12.530668 16.281373) with tilt (-8.5416134 1.2256099 0.44220088)
  restoring pair style lj/cut from restart
  restoring bond style harmonic from restart
  restoring angle style hybrid from restart
  restoring dihedral style harmonic from restart
  274 atoms
  294 bonds
  557 angles
  696 dihedrals
Finding 1-2 1-3 1-4 neighbors ...
     4 = max # of 1-2 neighbors
     8 = max # of 1-3 neighbors
    12 = max # of special neighbors
  read_restart CPU = 0.001 seconds
include ./input/angles_333-EXP-11-vasp.mod
angle_style hybrid fourier cosine/periodic
angle_coeff 1 fourier 157.882480        0.343737        0.374972        0.281246
angle_coeff 2 fourier 221.735285        0.343737        0.374972        0.281246
angle_coeff 3 fourier 83.380072        0.343737        0.374972        0.281246
angle_coeff 4 fourier 58.020602        0.343737        0.374972        0.281246
angle_coeff 5 fourier 114.246973        0.343737        0.374972        0.281246
angle_coeff 6 fourier 32.417871        0.343737        0.374972        0.281246
angle_coeff 7 fourier 90.420412        0.343737        0.374972        0.281246
angle_coeff 8 fourier 75.498766        0.343737        0.374972        0.281246
angle_coeff 9 cosine/periodic 88.853997              -1               3

# Positive deformation

variable delta equal 0.02*15.906876969082
variable deltaxy equal 0.02*xy
variable deltaxz equal 0.02*xz
variable deltayz equal 0.02*yz
change_box all x delta 0 0.31813753938164 xy delta -0.170832268019163 xz delta 0.0245121981843012 remap units box
Changing box ...
  triclinic box = (-0.14150848 -0.11986291 -0.20592074) to (16.083506 12.530668 16.281373) with tilt (-8.5416134 1.2256099 0.44220088)
  triclinic box = (-0.14150848 -0.11986291 -0.20592074) to (16.083506 12.530668 16.281373) with tilt (-8.7124457 1.2256099 0.44220088)
  triclinic box = (-0.14150848 -0.11986291 -0.20592074) to (16.083506 12.530668 16.281373) with tilt (-8.7124457 1.2501221 0.44220088)

# Relax atoms positions

minimize 0 1e-10 100000 100000
Generated 6 of 6 mixed pair_coeff terms from arithmetic mixing rule
For more information see https://docs.lammps.org/err0027 (src/domain.cpp:1052)
Step          Temp          E_pair         E_mol          TotEng         Press
250437   268.28922     -352.99731      316.66931      181.99534     -18806.351
Loop time of 0.0172143 on 1 procs for 43 steps with 274 atoms

Minimization stats:
  Stopping criterion = linesearch alpha is zero
  Energy initial, next-to-last, final =
  Force two-norm initial, final = 179.33931 12.864276
  Force max component initial, final = 24.391113 2.2611251
  Final line search alpha, max atom move = 5.0573207e-11 1.1435235e-10
  Iterations, force evaluations = 43 141

# Obtain new stress tensor

variable tmp equal pe
variable e1 equal -115.366367625185
variable tmp equal press
variable p1 equal -2965.82518584645
variable tmp equal pxx
variable pxx1 equal -5022.25155373445
variable tmp equal pyy
variable pyy1 equal -4317.0126118158
variable tmp equal pzz
variable pzz1 equal 441.788608010918
variable tmp equal pxy
variable pxy1 equal 4410.75343853802
variable tmp equal pxz
variable pxz1 equal -3550.61879683226
variable tmp equal pyz
variable pyz1 equal 747.700708443882

# Compute elastic constant from pressure tensor

variable C1pos equal 41.5869346141617
variable C2pos equal 37.5335273820772
variable C3pos equal 14.1349290118089
variable C4pos equal 10.9591540098974
variable C5pos equal 7.61011752809955
variable C6pos equal -10.3496560616895

# Combine positive and negative

variable C11 equal 0.5*(14.3542311243977+41.5869346141617)
variable C21 equal 0.5*(-14.286930620991+37.5335273820772)
variable C31 equal 0.5*(8.7479640204604+14.1349290118089)
variable C41 equal 0.5*(-3.39257239370785+10.9591540098974)
variable C51 equal 0.5*(-4.34421627943865+7.61011752809955)
variable C61 equal 0.5*(13.5977828506729+-10.3496560616895)

# Delete dir to make sure it is not reused

variable dir delete

# uyy Perturbation

variable dir equal 2
include ./input/displace_333-EXP-11-vasp.mod
variable len0 equal 12.6505308218205

# Reset box and simulation parameters

clear
box tilt large

The 'box' command has been removed and will be ignored

read_restart restart_333-EXP-11-vasp.equil
Reading restart file ...
  restart file = 10 Sep 2025, LAMMPS = 10 Sep 2025
  restoring atom style full from restart
  triclinic box = (-0.14150848 -0.11986291 -0.20592074) to (15.765368 12.530668 16.281373) with tilt (-8.5416134 1.2256099 0.44220088)
  restoring pair style lj/cut from restart
  restoring bond style harmonic from restart
  restoring angle style hybrid from restart
  restoring dihedral style harmonic from restart
  274 atoms
  294 bonds
  557 angles
  696 dihedrals
Finding 1-2 1-3 1-4 neighbors ...
     4 = max # of 1-2 neighbors
     8 = max # of 1-3 neighbors
    12 = max # of special neighbors
  read_restart CPU = 0.001 seconds
include ./input/angles_333-EXP-11-vasp.mod
angle_style hybrid fourier cosine/periodic
angle_coeff 1 fourier 157.882480        0.343737        0.374972        0.281246
angle_coeff 2 fourier 221.735285        0.343737        0.374972        0.281246
angle_coeff 3 fourier 83.380072        0.343737        0.374972        0.281246
angle_coeff 4 fourier 58.020602        0.343737        0.374972        0.281246
angle_coeff 5 fourier 114.246973        0.343737        0.374972        0.281246
angle_coeff 6 fourier 32.417871        0.343737        0.374972        0.281246
angle_coeff 7 fourier 90.420412        0.343737        0.374972        0.281246
angle_coeff 8 fourier 75.498766        0.343737        0.374972        0.281246
angle_coeff 9 cosine/periodic 88.853997              -1               3

# Negative deformation

variable delta equal -0.02*12.6505308218205
variable deltaxy equal -0.02*xy
variable deltaxz equal -0.02*xz
variable deltayz equal -0.02*yz
change_box all y delta 0 -0.25301061643641 yz delta -0.00884401759685427 remap units box
Changing box ...
  triclinic box = (-0.14150848 -0.11986291 -0.20592074) to (15.765368 12.277657 16.281373) with tilt (-8.5416134 1.2256099 0.44220088)
  triclinic box = (-0.14150848 -0.11986291 -0.20592074) to (15.765368 12.277657 16.281373) with tilt (-8.5416134 1.2256099 0.43335686)

# Relax atoms positions

minimize 0 1e-10 100000 100000
Generated 6 of 6 mixed pair_coeff terms from arithmetic mixing rule
For more information see https://docs.lammps.org/err0027 (src/domain.cpp:1052)
Step          Temp          E_pair         E_mol          TotEng         Press
250437   268.28922     -337.62984      302.14452      182.83802      25890.387
Loop time of 0.0158519 on 1 procs for 34 steps with 274 atoms

Minimization stats:
  Stopping criterion = linesearch alpha is zero
  Energy initial, next-to-last, final =
  Force two-norm initial, final = 175.60617 18.73174
  Force max component initial, final = 20.34014 2.6135856
  Final line search alpha, max atom move = 1.9002077e-11 4.9663555e-11
  Iterations, force evaluations = 34 125

# Obtain new stress tensor

variable tmp equal pxx
variable pxx1 equal 2331.50707954133
variable tmp equal pyy
variable pyy1 equal 5109.12266986824
variable tmp equal pzz
variable pzz1 equal 6061.75969039014
variable tmp equal pxy
variable pxy1 equal 6252.82649023591
variable tmp equal pxz
variable pxz1 equal -3212.75232131688
variable tmp equal pyz
variable pyz1 equal 2161.9797346822

# Compute elastic constant from pressure tensor

variable C1neg equal -4.8181414477828
variable C2neg equal 9.597149026343
variable C3neg equal 13.9649264000873
variable C4neg equal -3.8877588787058
variable C5neg equal -5.92078515052265
variable C6neg equal 19.5600213201789

# Reset box and simulation parameters

clear
box tilt large

The 'box' command has been removed and will be ignored

read_restart restart_333-EXP-11-vasp.equil
Reading restart file ...
  restart file = 10 Sep 2025, LAMMPS = 10 Sep 2025
  restoring atom style full from restart
  triclinic box = (-0.14150848 -0.11986291 -0.20592074) to (15.765368 12.530668 16.281373) with tilt (-8.5416134 1.2256099 0.44220088)
  restoring pair style lj/cut from restart
  restoring bond style harmonic from restart
  restoring angle style hybrid from restart
  restoring dihedral style harmonic from restart
  274 atoms
  294 bonds
  557 angles
  696 dihedrals
Finding 1-2 1-3 1-4 neighbors ...
     4 = max # of 1-2 neighbors
     8 = max # of 1-3 neighbors
    12 = max # of special neighbors
  read_restart CPU = 0.001 seconds
include ./input/angles_333-EXP-11-vasp.mod
angle_style hybrid fourier cosine/periodic
angle_coeff 1 fourier 157.882480        0.343737        0.374972        0.281246
angle_coeff 2 fourier 221.735285        0.343737        0.374972        0.281246
angle_coeff 3 fourier 83.380072        0.343737        0.374972        0.281246
angle_coeff 4 fourier 58.020602        0.343737        0.374972        0.281246
angle_coeff 5 fourier 114.246973        0.343737        0.374972        0.281246
angle_coeff 6 fourier 32.417871        0.343737        0.374972        0.281246
angle_coeff 7 fourier 90.420412        0.343737        0.374972        0.281246
angle_coeff 8 fourier 75.498766        0.343737        0.374972        0.281246
angle_coeff 9 cosine/periodic 88.853997              -1               3

# Positive deformation

variable delta equal 0.02*12.6505308218205
variable deltaxy equal 0.02*xy
variable deltaxz equal 0.02*xz
variable deltayz equal 0.02*yz
change_box all y delta 0 0.25301061643641 yz delta 0.00884401759685427 remap units box
Changing box ...
  triclinic box = (-0.14150848 -0.11986291 -0.20592074) to (15.765368 12.783679 16.281373) with tilt (-8.5416134 1.2256099 0.44220088)
  triclinic box = (-0.14150848 -0.11986291 -0.20592074) to (15.765368 12.783679 16.281373) with tilt (-8.5416134 1.2256099 0.4510449)

# Relax atoms positions

minimize 0 1e-10 100000 100000
Generated 6 of 6 mixed pair_coeff terms from arithmetic mixing rule
For more information see https://docs.lammps.org/err0027 (src/domain.cpp:1052)
Step          Temp          E_pair         E_mol          TotEng         Press
250437   268.28922     -353.15439      316.28757      181.45652     -18737.397
Loop time of 0.0147526 on 1 procs for 31 steps with 274 atoms

Minimization stats:
  Stopping criterion = linesearch alpha is zero
  Energy initial, next-to-last, final =
  Force two-norm initial, final = 168.68761 18.526835
  Force max component initial, final = 20.179895 3.5516569
  Final line search alpha, max atom move = 2.0264885e-11 7.1973918e-11
  Iterations, force evaluations = 31 119

# Obtain new stress tensor

variable tmp equal pe
variable e1 equal -109.325655472431
variable tmp equal press
variable p1 equal -3748.20583963495
variable tmp equal pxx
variable pxx1 equal -2401.17354028193
variable tmp equal pyy
variable pyy1 equal -8162.5789422347
variable tmp equal pzz
variable pzz1 equal -680.865036388213
variable tmp equal pxy
variable pxy1 equal 3633.85861603506
variable tmp equal pxz
variable pxz1 equal -3342.12937031533
variable tmp equal pyz
variable pyz1 equal 940.532166042142

# Compute elastic constant from pressure tensor

variable C1pos equal 28.4815445468991
variable C2pos equal 56.7613590341717
variable C3pos equal 19.7481972338045
variable C4pos equal 9.99499672190609
variable C5pos equal 6.5676703955149
variable C6pos equal -6.46518194917465

# Combine positive and negative

variable C12 equal 0.5*(-4.8181414477828+28.4815445468991)
variable C22 equal 0.5*(9.597149026343+56.7613590341717)
variable C32 equal 0.5*(13.9649264000873+19.7481972338045)
variable C42 equal 0.5*(-3.8877588787058+9.99499672190609)
variable C52 equal 0.5*(-5.92078515052265+6.5676703955149)
variable C62 equal 0.5*(19.5600213201789+-6.46518194917465)

# Delete dir to make sure it is not reused

variable dir delete

# uzz Perturbation

variable dir equal 3
include ./input/displace_333-EXP-11-vasp.mod
variable len0 equal 16.4872934751279

# Reset box and simulation parameters

clear
box tilt large

The 'box' command has been removed and will be ignored

read_restart restart_333-EXP-11-vasp.equil
Reading restart file ...
  restart file = 10 Sep 2025, LAMMPS = 10 Sep 2025
  restoring atom style full from restart
  triclinic box = (-0.14150848 -0.11986291 -0.20592074) to (15.765368 12.530668 16.281373) with tilt (-8.5416134 1.2256099 0.44220088)
  restoring pair style lj/cut from restart
  restoring bond style harmonic from restart
  restoring angle style hybrid from restart
  restoring dihedral style harmonic from restart
  274 atoms
  294 bonds
  557 angles
  696 dihedrals
Finding 1-2 1-3 1-4 neighbors ...
     4 = max # of 1-2 neighbors
     8 = max # of 1-3 neighbors
    12 = max # of special neighbors
  read_restart CPU = 0.001 seconds
include ./input/angles_333-EXP-11-vasp.mod
angle_style hybrid fourier cosine/periodic
angle_coeff 1 fourier 157.882480        0.343737        0.374972        0.281246
angle_coeff 2 fourier 221.735285        0.343737        0.374972        0.281246
angle_coeff 3 fourier 83.380072        0.343737        0.374972        0.281246
angle_coeff 4 fourier 58.020602        0.343737        0.374972        0.281246
angle_coeff 5 fourier 114.246973        0.343737        0.374972        0.281246
angle_coeff 6 fourier 32.417871        0.343737        0.374972        0.281246
angle_coeff 7 fourier 90.420412        0.343737        0.374972        0.281246
angle_coeff 8 fourier 75.498766        0.343737        0.374972        0.281246
angle_coeff 9 cosine/periodic 88.853997              -1               3

# Negative deformation

variable delta equal -0.02*16.4872934751279
variable deltaxy equal -0.02*xy
variable deltaxz equal -0.02*xz
variable deltayz equal -0.02*yz
change_box all z delta 0 -0.329745869502558 remap units box
Changing box ...
  triclinic box = (-0.14150848 -0.11986291 -0.20592074) to (15.765368 12.530668 15.951627) with tilt (-8.5416134 1.2256099 0.44220088)

# Relax atoms positions

minimize 0 1e-10 100000 100000
Generated 6 of 6 mixed pair_coeff terms from arithmetic mixing rule
For more information see https://docs.lammps.org/err0027 (src/domain.cpp:1052)
Step          Temp          E_pair         E_mol          TotEng         Press
250437   268.28922     -333.38386      299.77411      184.71359      27161.057
Loop time of 0.0160772 on 1 procs for 37 steps with 274 atoms

Minimization stats:
  Stopping criterion = linesearch alpha is zero
  Energy initial, next-to-last, final =
  Force two-norm initial, final = 175.72939 15.715667
  Force max component initial, final = 20.433014 2.2736173
  Final line search alpha, max atom move = 5.0270436e-11 1.1429573e-10
  Iterations, force evaluations = 37 128

# Obtain new stress tensor

variable tmp equal pxx
variable pxx1 equal 2544.38259140856
variable tmp equal pyy
variable pyy1 equal 1940.79187411547
variable tmp equal pzz
variable pzz1 equal 12340.1271908669
variable tmp equal pxy
variable pxy1 equal 4465.15615898975
variable tmp equal pxz
variable pxz1 equal -3998.24496050631
variable tmp equal pyz
variable pyz1 equal 2125.8146158275

# Compute elastic constant from pressure tensor

variable C1neg equal -3.75376388844665
variable C2neg equal -6.24450495242085
variable C3neg equal 45.356763902471
variable C4neg equal -4.0685844729793
variable C5neg equal -9.8482483464698
variable C6neg equal 10.6216696639481

# Reset box and simulation parameters

clear
box tilt large

The 'box' command has been removed and will be ignored

read_restart restart_333-EXP-11-vasp.equil
Reading restart file ...
  restart file = 10 Sep 2025, LAMMPS = 10 Sep 2025
  restoring atom style full from restart
  triclinic box = (-0.14150848 -0.11986291 -0.20592074) to (15.765368 12.530668 16.281373) with tilt (-8.5416134 1.2256099 0.44220088)
  restoring pair style lj/cut from restart
  restoring bond style harmonic from restart
  restoring angle style hybrid from restart
  restoring dihedral style harmonic from restart
  274 atoms
  294 bonds
  557 angles
  696 dihedrals
Finding 1-2 1-3 1-4 neighbors ...
     4 = max # of 1-2 neighbors
     8 = max # of 1-3 neighbors
    12 = max # of special neighbors
  read_restart CPU = 0.001 seconds
include ./input/angles_333-EXP-11-vasp.mod
angle_style hybrid fourier cosine/periodic
angle_coeff 1 fourier 157.882480        0.343737        0.374972        0.281246
angle_coeff 2 fourier 221.735285        0.343737        0.374972        0.281246
angle_coeff 3 fourier 83.380072        0.343737        0.374972        0.281246
angle_coeff 4 fourier 58.020602        0.343737        0.374972        0.281246
angle_coeff 5 fourier 114.246973        0.343737        0.374972        0.281246
angle_coeff 6 fourier 32.417871        0.343737        0.374972        0.281246
angle_coeff 7 fourier 90.420412        0.343737        0.374972        0.281246
angle_coeff 8 fourier 75.498766        0.343737        0.374972        0.281246
angle_coeff 9 cosine/periodic 88.853997              -1               3

# Positive deformation

variable delta equal 0.02*16.4872934751279
variable deltaxy equal 0.02*xy
variable deltaxz equal 0.02*xz
variable deltayz equal 0.02*yz
change_box all z delta 0 0.329745869502558 remap units box
Changing box ...
  triclinic box = (-0.14150848 -0.11986291 -0.20592074) to (15.765368 12.530668 16.611119) with tilt (-8.5416134 1.2256099 0.44220088)

# Relax atoms positions

minimize 0 1e-10 100000 100000
Generated 6 of 6 mixed pair_coeff terms from arithmetic mixing rule
For more information see https://docs.lammps.org/err0027 (src/domain.cpp:1052)
Step          Temp          E_pair         E_mol          TotEng         Press
250437   268.28922     -356.14227      319.70548      181.88655     -19895.661
Loop time of 0.015554 on 1 procs for 34 steps with 274 atoms

Minimization stats:
  Stopping criterion = linesearch alpha is zero
  Energy initial, next-to-last, final =
  Force two-norm initial, final = 174.39334 17.288495
  Force max component initial, final = 23.826687 2.6026335
  Final line search alpha, max atom move = 2.5859392e-11 6.730252e-11
  Iterations, force evaluations = 34 124

# Obtain new stress tensor

variable tmp equal pe
variable e1 equal -113.946656089712
variable tmp equal press
variable p1 equal -4584.8411058103
variable tmp equal pxx
variable pxx1 equal -2605.74486179866
variable tmp equal pyy
variable pyy1 equal -4855.01563415662
variable tmp equal pzz
variable pzz1 equal -6293.76282147561
variable tmp equal pxy
variable pxy1 equal 5352.70945231169
variable tmp equal pxz
variable pxz1 equal -2595.53736202678
variable tmp equal pyz
variable pyz1 equal 1122.12624250615

# Compute elastic constant from pressure tensor

variable C1pos equal 29.5044011544827
variable C2pos equal 40.2235424937813
variable C3pos equal 47.8126861592415
variable C4pos equal 9.08702633958605
variable C5pos equal 2.83471035407215
variable C6pos equal -15.0594361305578

# Combine positive and negative

variable C13 equal 0.5*(-3.75376388844665+29.5044011544827)
variable C23 equal 0.5*(-6.24450495242085+40.2235424937813)
variable C33 equal 0.5*(45.356763902471+47.8126861592415)
variable C43 equal 0.5*(-4.0685844729793+9.08702633958605)
variable C53 equal 0.5*(-9.8482483464698+2.83471035407215)
variable C63 equal 0.5*(10.6216696639481+-15.0594361305578)

# Delete dir to make sure it is not reused

variable dir delete

# uyz Perturbation

variable dir equal 4
include ./input/displace_333-EXP-11-vasp.mod
variable len0 equal 16.4872934751279

# Reset box and simulation parameters

clear
box tilt large

The 'box' command has been removed and will be ignored

read_restart restart_333-EXP-11-vasp.equil
Reading restart file ...
  restart file = 10 Sep 2025, LAMMPS = 10 Sep 2025
  restoring atom style full from restart
  triclinic box = (-0.14150848 -0.11986291 -0.20592074) to (15.765368 12.530668 16.281373) with tilt (-8.5416134 1.2256099 0.44220088)
  restoring pair style lj/cut from restart
  restoring bond style harmonic from restart
  restoring angle style hybrid from restart
  restoring dihedral style harmonic from restart
  274 atoms
  294 bonds
  557 angles
  696 dihedrals
Finding 1-2 1-3 1-4 neighbors ...
     4 = max # of 1-2 neighbors
     8 = max # of 1-3 neighbors
    12 = max # of special neighbors
  read_restart CPU = 0.001 seconds
include ./input/angles_333-EXP-11-vasp.mod
angle_style hybrid fourier cosine/periodic
angle_coeff 1 fourier 157.882480        0.343737        0.374972        0.281246
angle_coeff 2 fourier 221.735285        0.343737        0.374972        0.281246
angle_coeff 3 fourier 83.380072        0.343737        0.374972        0.281246
angle_coeff 4 fourier 58.020602        0.343737        0.374972        0.281246
angle_coeff 5 fourier 114.246973        0.343737        0.374972        0.281246
angle_coeff 6 fourier 32.417871        0.343737        0.374972        0.281246
angle_coeff 7 fourier 90.420412        0.343737        0.374972        0.281246
angle_coeff 8 fourier 75.498766        0.343737        0.374972        0.281246
angle_coeff 9 cosine/periodic 88.853997              -1               3

# Negative deformation

variable delta equal -0.02*16.4872934751279
variable deltaxy equal -0.02*xy
variable deltaxz equal -0.02*xz
variable deltayz equal -0.02*yz
change_box all yz delta -0.329745869502558 remap units box
Changing box ...
  triclinic box = (-0.14150848 -0.11986291 -0.20592074) to (15.765368 12.530668 16.281373) with tilt (-8.5416134 1.2256099 0.11245501)

# Relax atoms positions

minimize 0 1e-10 100000 100000
Generated 6 of 6 mixed pair_coeff terms from arithmetic mixing rule
For more information see https://docs.lammps.org/err0027 (src/domain.cpp:1052)
Step          Temp          E_pair         E_mol          TotEng         Press
250437   268.28922     -345.22911      300.56066      173.65489      3558.7286
Loop time of 0.0182506 on 1 procs for 45 steps with 274 atoms

Minimization stats:
  Stopping criterion = linesearch alpha is zero
  Energy initial, next-to-last, final =
  Force two-norm initial, final = 144.18015 10.841629
  Force max component initial, final = 15.796323 1.8014231
  Final line search alpha, max atom move = 6.3284018e-11 1.1400129e-10
  Iterations, force evaluations = 45 145

# Obtain new stress tensor

variable tmp equal pxx
variable pxx1 equal 271.556943318054
variable tmp equal pyy
variable pyy1 equal -1458.84550415006
variable tmp equal pzz
variable pzz1 equal 2998.27732901884
variable tmp equal pxy
variable pxy1 equal 4770.28669211261
variable tmp equal pxz
variable pxz1 equal -3279.83389631373
variable tmp equal pyz
variable pyz1 equal 4476.15246427338

# Compute elastic constant from pressure tensor

variable C1neg equal -15.1178921288992
variable C2neg equal -23.2426918437485
variable C3neg equal -1.35248540676925
variable C4neg equal 7.6831047692501
variable C5neg equal -6.2561930255069
variable C6neg equal 12.1473223295624

# Reset box and simulation parameters

clear
box tilt large

The 'box' command has been removed and will be ignored

read_restart restart_333-EXP-11-vasp.equil
Reading restart file ...
  restart file = 10 Sep 2025, LAMMPS = 10 Sep 2025
  restoring atom style full from restart
  triclinic box = (-0.14150848 -0.11986291 -0.20592074) to (15.765368 12.530668 16.281373) with tilt (-8.5416134 1.2256099 0.44220088)
  restoring pair style lj/cut from restart
  restoring bond style harmonic from restart
  restoring angle style hybrid from restart
  restoring dihedral style harmonic from restart
  274 atoms
  294 bonds
  557 angles
  696 dihedrals
Finding 1-2 1-3 1-4 neighbors ...
     4 = max # of 1-2 neighbors
     8 = max # of 1-3 neighbors
    12 = max # of special neighbors
  read_restart CPU = 0.001 seconds
include ./input/angles_333-EXP-11-vasp.mod
angle_style hybrid fourier cosine/periodic
angle_coeff 1 fourier 157.882480        0.343737        0.374972        0.281246
angle_coeff 2 fourier 221.735285        0.343737        0.374972        0.281246
angle_coeff 3 fourier 83.380072        0.343737        0.374972        0.281246
angle_coeff 4 fourier 58.020602        0.343737        0.374972        0.281246
angle_coeff 5 fourier 114.246973        0.343737        0.374972        0.281246
angle_coeff 6 fourier 32.417871        0.343737        0.374972        0.281246
angle_coeff 7 fourier 90.420412        0.343737        0.374972        0.281246
angle_coeff 8 fourier 75.498766        0.343737        0.374972        0.281246
angle_coeff 9 cosine/periodic 88.853997              -1               3

# Positive deformation

variable delta equal 0.02*16.4872934751279
variable deltaxy equal 0.02*xy
variable deltaxz equal 0.02*xz
variable deltayz equal 0.02*yz
change_box all yz delta 0.329745869502558 remap units box
Changing box ...
  triclinic box = (-0.14150848 -0.11986291 -0.20592074) to (15.765368 12.530668 16.281373) with tilt (-8.5416134 1.2256099 0.77194675)

# Relax atoms positions

minimize 0 1e-10 100000 100000
Generated 6 of 6 mixed pair_coeff terms from arithmetic mixing rule
For more information see https://docs.lammps.org/err0027 (src/domain.cpp:1052)
Step          Temp          E_pair         E_mol          TotEng         Press
250437   268.28922     -347.46039      295.93938      166.80233      2570.7483
Loop time of 0.0158273 on 1 procs for 36 steps with 274 atoms

Minimization stats:
  Stopping criterion = linesearch alpha is zero
  Energy initial, next-to-last, final =
  Force two-norm initial, final = 142.28766 14.320859
  Force max component initial, final = 15.929207 1.775651
  Final line search alpha, max atom move = 5.8060915e-11 1.0309592e-10
  Iterations, force evaluations = 36 127

# Obtain new stress tensor

variable tmp equal pe
variable e1 equal -118.46709130949
variable tmp equal press
variable p1 equal -333.443156821179
variable tmp equal pxx
variable pxx1 equal -756.932564752172
variable tmp equal pyy
variable pyy1 equal -2220.42301836222
variable tmp equal pzz
variable pzz1 equal 1977.02611265086
variable tmp equal pxy
variable pxy1 equal 5041.13953528273
variable tmp equal pxz
variable pxz1 equal -3323.83432419791
variable tmp equal pyz
variable pyz1 equal -1297.4051150574

# Compute elastic constant from pressure tensor

variable C1pos equal 20.2603396692503
variable C2pos equal 27.0505794148093
variable C3pos equal 6.45874148860915
variable C4pos equal 21.1846831274038
variable C5pos equal 6.4761951649278
variable C6pos equal -13.501586545413

# Combine positive and negative

variable C14 equal 0.5*(-15.1178921288992+20.2603396692503)
variable C24 equal 0.5*(-23.2426918437485+27.0505794148093)
variable C34 equal 0.5*(-1.35248540676925+6.45874148860915)
variable C44 equal 0.5*(7.6831047692501+21.1846831274038)
variable C54 equal 0.5*(-6.2561930255069+6.4761951649278)
variable C64 equal 0.5*(12.1473223295624+-13.501586545413)

# Delete dir to make sure it is not reused

variable dir delete

# uxz Perturbation

variable dir equal 5
include ./input/displace_333-EXP-11-vasp.mod
variable len0 equal 16.4872934751279

# Reset box and simulation parameters

clear
box tilt large

The 'box' command has been removed and will be ignored

read_restart restart_333-EXP-11-vasp.equil
Reading restart file ...
  restart file = 10 Sep 2025, LAMMPS = 10 Sep 2025
  restoring atom style full from restart
  triclinic box = (-0.14150848 -0.11986291 -0.20592074) to (15.765368 12.530668 16.281373) with tilt (-8.5416134 1.2256099 0.44220088)
  restoring pair style lj/cut from restart
  restoring bond style harmonic from restart
  restoring angle style hybrid from restart
  restoring dihedral style harmonic from restart
  274 atoms
  294 bonds
  557 angles
  696 dihedrals
Finding 1-2 1-3 1-4 neighbors ...
     4 = max # of 1-2 neighbors
     8 = max # of 1-3 neighbors
    12 = max # of special neighbors
  read_restart CPU = 0.001 seconds
include ./input/angles_333-EXP-11-vasp.mod
angle_style hybrid fourier cosine/periodic
angle_coeff 1 fourier 157.882480        0.343737        0.374972        0.281246
angle_coeff 2 fourier 221.735285        0.343737        0.374972        0.281246
angle_coeff 3 fourier 83.380072        0.343737        0.374972        0.281246
angle_coeff 4 fourier 58.020602        0.343737        0.374972        0.281246
angle_coeff 5 fourier 114.246973        0.343737        0.374972        0.281246
angle_coeff 6 fourier 32.417871        0.343737        0.374972        0.281246
angle_coeff 7 fourier 90.420412        0.343737        0.374972        0.281246
angle_coeff 8 fourier 75.498766        0.343737        0.374972        0.281246
angle_coeff 9 cosine/periodic 88.853997              -1               3

# Negative deformation

variable delta equal -0.02*16.4872934751279
variable deltaxy equal -0.02*xy
variable deltaxz equal -0.02*xz
variable deltayz equal -0.02*yz
change_box all xz delta -0.329745869502558 remap units box
Changing box ...
  triclinic box = (-0.14150848 -0.11986291 -0.20592074) to (15.765368 12.530668 16.281373) with tilt (-8.5416134 0.89586404 0.44220088)

# Relax atoms positions

minimize 0 1e-10 100000 100000
Generated 6 of 6 mixed pair_coeff terms from arithmetic mixing rule
For more information see https://docs.lammps.org/err0027 (src/domain.cpp:1052)
Step          Temp          E_pair         E_mol          TotEng         Press
250437   268.28922     -345.85866      295.54752      168.0122       2602.7208
Loop time of 0.0161056 on 1 procs for 35 steps with 274 atoms

Minimization stats:
  Stopping criterion = linesearch alpha is zero
  Energy initial, next-to-last, final =
  Force two-norm initial, final = 136.97246 14.956559
  Force max component initial, final = 17.236984 2.4857563
  Final line search alpha, max atom move = 3.1978867e-11 7.949167e-11
  Iterations, force evaluations = 35 126

# Obtain new stress tensor

variable tmp equal pxx
variable pxx1 equal 207.715909880128
variable tmp equal pyy
variable pyy1 equal -1815.17547703814
variable tmp equal pzz
variable pzz1 equal 1615.84585082194
variable tmp equal pxy
variable pxy1 equal 5218.51594664087
variable tmp equal pxz
variable pxz1 equal -330.06354580203
variable tmp equal pyz
variable pyz1 equal 1846.90393248951

# Compute elastic constant from pressure tensor

variable C1neg equal -15.4370972960888
variable C2neg equal -25.0243417081889
variable C3neg equal -8.26464279775375
variable C4neg equal -5.46313788966925
variable C5neg equal 8.4926587270516
variable C6neg equal 14.3884686022037

# Reset box and simulation parameters

clear
box tilt large

The 'box' command has been removed and will be ignored

read_restart restart_333-EXP-11-vasp.equil
Reading restart file ...
  restart file = 10 Sep 2025, LAMMPS = 10 Sep 2025
  restoring atom style full from restart
  triclinic box = (-0.14150848 -0.11986291 -0.20592074) to (15.765368 12.530668 16.281373) with tilt (-8.5416134 1.2256099 0.44220088)
  restoring pair style lj/cut from restart
  restoring bond style harmonic from restart
  restoring angle style hybrid from restart
  restoring dihedral style harmonic from restart
  274 atoms
  294 bonds
  557 angles
  696 dihedrals
Finding 1-2 1-3 1-4 neighbors ...
     4 = max # of 1-2 neighbors
     8 = max # of 1-3 neighbors
    12 = max # of special neighbors
  read_restart CPU = 0.001 seconds
include ./input/angles_333-EXP-11-vasp.mod
angle_style hybrid fourier cosine/periodic
angle_coeff 1 fourier 157.882480        0.343737        0.374972        0.281246
angle_coeff 2 fourier 221.735285        0.343737        0.374972        0.281246
angle_coeff 3 fourier 83.380072        0.343737        0.374972        0.281246
angle_coeff 4 fourier 58.020602        0.343737        0.374972        0.281246
angle_coeff 5 fourier 114.246973        0.343737        0.374972        0.281246
angle_coeff 6 fourier 32.417871        0.343737        0.374972        0.281246
angle_coeff 7 fourier 90.420412        0.343737        0.374972        0.281246
angle_coeff 8 fourier 75.498766        0.343737        0.374972        0.281246
angle_coeff 9 cosine/periodic 88.853997              -1               3

# Positive deformation

variable delta equal 0.02*16.4872934751279
variable deltaxy equal 0.02*xy
variable deltaxz equal 0.02*xz
variable deltayz equal 0.02*yz
change_box all xz delta 0.329745869502558 remap units box
Changing box ...
  triclinic box = (-0.14150848 -0.11986291 -0.20592074) to (15.765368 12.530668 16.281373) with tilt (-8.5416134 1.5553558 0.44220088)

# Relax atoms positions

minimize 0 1e-10 100000 100000
Generated 6 of 6 mixed pair_coeff terms from arithmetic mixing rule
For more information see https://docs.lammps.org/err0027 (src/domain.cpp:1052)
Step          Temp          E_pair         E_mol          TotEng         Press
250437   268.28922     -346.6364       300.20683      171.89377      3536.1048
Loop time of 0.0174133 on 1 procs for 35 steps with 274 atoms

Minimization stats:
  Stopping criterion = linesearch alpha is zero
  Energy initial, next-to-last, final =
  Force two-norm initial, final = 138.04378 15.265819
  Force max component initial, final = 15.231805 2.0519275
  Final line search alpha, max atom move = 4.9494727e-11 1.0155959e-10
  Iterations, force evaluations = 35 125

# Obtain new stress tensor

variable tmp equal pe
variable e1 equal -113.578107255892
variable tmp equal press
variable p1 equal 204.1317757311
variable tmp equal pxx
variable pxx1 equal -972.35730815417
variable tmp equal pyy
variable pyy1 equal -1777.39724510502
variable tmp equal pzz
variable pzz1 equal 3362.14988045249
variable tmp equal pxy
variable pxy1 equal 4912.3236511696
variable tmp equal pxz
variable pxz1 equal -6232.46677834415
variable tmp equal pyz
variable pyz1 equal 1525.47703992337

# Compute elastic constant from pressure tensor

variable C1pos equal 21.3374633862603
variable C2pos equal 24.8354505485233
variable C3pos equal -0.466877350399
variable C4pos equal 7.07027235249995
variable C5pos equal 21.019357435659
variable C6pos equal -12.8575071248474

# Combine positive and negative

variable C15 equal 0.5*(-15.4370972960888+21.3374633862603)
variable C25 equal 0.5*(-25.0243417081889+24.8354505485233)
variable C35 equal 0.5*(-8.26464279775375+-0.466877350399)
variable C45 equal 0.5*(-5.46313788966925+7.07027235249995)
variable C55 equal 0.5*(8.4926587270516+21.019357435659)
variable C65 equal 0.5*(14.3884686022037+-12.8575071248474)

# Delete dir to make sure it is not reused

variable dir delete

# uxy Perturbation

variable dir equal 6
include ./input/displace_333-EXP-11-vasp.mod
variable len0 equal 12.6505308218205

# Reset box and simulation parameters

clear
box tilt large

The 'box' command has been removed and will be ignored

read_restart restart_333-EXP-11-vasp.equil
Reading restart file ...
  restart file = 10 Sep 2025, LAMMPS = 10 Sep 2025
  restoring atom style full from restart
  triclinic box = (-0.14150848 -0.11986291 -0.20592074) to (15.765368 12.530668 16.281373) with tilt (-8.5416134 1.2256099 0.44220088)
  restoring pair style lj/cut from restart
  restoring bond style harmonic from restart
  restoring angle style hybrid from restart
  restoring dihedral style harmonic from restart
  274 atoms
  294 bonds
  557 angles
  696 dihedrals
Finding 1-2 1-3 1-4 neighbors ...
     4 = max # of 1-2 neighbors
     8 = max # of 1-3 neighbors
    12 = max # of special neighbors
  read_restart CPU = 0.001 seconds
include ./input/angles_333-EXP-11-vasp.mod
angle_style hybrid fourier cosine/periodic
angle_coeff 1 fourier 157.882480        0.343737        0.374972        0.281246
angle_coeff 2 fourier 221.735285        0.343737        0.374972        0.281246
angle_coeff 3 fourier 83.380072        0.343737        0.374972        0.281246
angle_coeff 4 fourier 58.020602        0.343737        0.374972        0.281246
angle_coeff 5 fourier 114.246973        0.343737        0.374972        0.281246
angle_coeff 6 fourier 32.417871        0.343737        0.374972        0.281246
angle_coeff 7 fourier 90.420412        0.343737        0.374972        0.281246
angle_coeff 8 fourier 75.498766        0.343737        0.374972        0.281246
angle_coeff 9 cosine/periodic 88.853997              -1               3

# Negative deformation

variable delta equal -0.02*12.6505308218205
variable deltaxy equal -0.02*xy
variable deltaxz equal -0.02*xz
variable deltayz equal -0.02*yz
change_box all xy delta -0.25301061643641 remap units box
Changing box ...
  triclinic box = (-0.14150848 -0.11986291 -0.20592074) to (15.765368 12.530668 16.281373) with tilt (-8.794624 1.2256099 0.44220088)

# Relax atoms positions

minimize 0 1e-10 100000 100000
Generated 6 of 6 mixed pair_coeff terms from arithmetic mixing rule
For more information see https://docs.lammps.org/err0027 (src/domain.cpp:1052)
Step          Temp          E_pair         E_mol          TotEng         Press
250437   268.28922     -346.16278      299.00469      171.16524      3229.8656
Loop time of 0.0201082 on 1 procs for 46 steps with 274 atoms

Minimization stats:
  Stopping criterion = linesearch alpha is zero
  Energy initial, next-to-last, final =
  Force two-norm initial, final = 137.27587 11.26426
  Force max component initial, final = 15.71423 1.391824
  Final line search alpha, max atom move = 8.5608158e-11 1.1915149e-10
  Iterations, force evaluations = 46 145

# Obtain new stress tensor

variable tmp equal pxx
variable pxx1 equal -215.245270379338
variable tmp equal pyy
variable pyy1 equal -474.878740233654
variable tmp equal pzz
variable pzz1 equal 1845.5655663551
variable tmp equal pxy
variable pxy1 equal 7434.48721658578
variable tmp equal pxz
variable pxz1 equal -3099.71587175358
variable tmp equal pyz
variable pyz1 equal 988.330151149797

# Compute elastic constant from pressure tensor

variable C1neg equal -17.5519031973861
variable C2neg equal -18.3228580241665
variable C3neg equal -7.11604422008795
variable C4neg equal -9.75600679636782
variable C5neg equal -5.35560290270615
variable C6neg equal 25.4683249519282

# Reset box and simulation parameters

clear
box tilt large

The 'box' command has been removed and will be ignored

read_restart restart_333-EXP-11-vasp.equil
Reading restart file ...
  restart file = 10 Sep 2025, LAMMPS = 10 Sep 2025
  restoring atom style full from restart
  triclinic box = (-0.14150848 -0.11986291 -0.20592074) to (15.765368 12.530668 16.281373) with tilt (-8.5416134 1.2256099 0.44220088)
  restoring pair style lj/cut from restart
  restoring bond style harmonic from restart
  restoring angle style hybrid from restart
  restoring dihedral style harmonic from restart
  274 atoms
  294 bonds
  557 angles
  696 dihedrals
Finding 1-2 1-3 1-4 neighbors ...
     4 = max # of 1-2 neighbors
     8 = max # of 1-3 neighbors
    12 = max # of special neighbors
  read_restart CPU = 0.001 seconds
include ./input/angles_333-EXP-11-vasp.mod
angle_style hybrid fourier cosine/periodic
angle_coeff 1 fourier 157.882480        0.343737        0.374972        0.281246
angle_coeff 2 fourier 221.735285        0.343737        0.374972        0.281246
angle_coeff 3 fourier 83.380072        0.343737        0.374972        0.281246
angle_coeff 4 fourier 58.020602        0.343737        0.374972        0.281246
angle_coeff 5 fourier 114.246973        0.343737        0.374972        0.281246
angle_coeff 6 fourier 32.417871        0.343737        0.374972        0.281246
angle_coeff 7 fourier 90.420412        0.343737        0.374972        0.281246
angle_coeff 8 fourier 75.498766        0.343737        0.374972        0.281246
angle_coeff 9 cosine/periodic 88.853997              -1               3

# Positive deformation

variable delta equal 0.02*12.6505308218205
variable deltaxy equal 0.02*xy
variable deltaxz equal 0.02*xz
variable deltayz equal 0.02*yz
change_box all xy delta 0.25301061643641 remap units box
Changing box ...
  triclinic box = (-0.14150848 -0.11986291 -0.20592074) to (15.765368 12.530668 16.281373) with tilt (-8.2886028 1.2256099 0.44220088)

# Relax atoms positions

minimize 0 1e-10 100000 100000
Generated 6 of 6 mixed pair_coeff terms from arithmetic mixing rule
For more information see https://docs.lammps.org/err0027 (src/domain.cpp:1052)
Step          Temp          E_pair         E_mol          TotEng         Press
250437   268.28922     -346.28767      294.88159      166.91726      2930.0901
Loop time of 0.0172758 on 1 procs for 41 steps with 274 atoms

Minimization stats:
  Stopping criterion = linesearch alpha is zero
  Energy initial, next-to-last, final =
  Force two-norm initial, final = 136.60824 12.294615
  Force max component initial, final = 13.737572 2.0296803
  Final line search alpha, max atom move = 5.8464749e-11 1.1866475e-10
  Iterations, force evaluations = 41 137

# Obtain new stress tensor

variable tmp equal pe
variable e1 equal -123.017202439477
variable tmp equal press
variable p1 equal -89.1774650079479
variable tmp equal pxx
variable pxx1 equal -194.334663229475
variable tmp equal pyy
variable pyy1 equal -3289.49942350281
variable tmp equal pzz
variable pzz1 equal 3216.30169170845
variable tmp equal pxy
variable pxy1 equal 1915.13752600229
variable tmp equal pxz
variable pxz1 equal -3376.87813853565
variable tmp equal pyz
variable pyz1 equal 1770.53365000356

# Compute elastic constant from pressure tensor

variable C1pos equal 17.4473501616368
variable C2pos equal 32.3959614405122
variable C3pos equal 0.262363593321199
variable C4pos equal 5.844989302099
variable C5pos equal 6.7414142366165
variable C6pos equal 2.1284235009892

# Combine positive and negative

variable C16 equal 0.5*(-17.5519031973861+17.4473501616368)
variable C26 equal 0.5*(-18.3228580241665+32.3959614405122)
variable C36 equal 0.5*(-7.11604422008795+0.262363593321199)
variable C46 equal 0.5*(-9.75600679636782+5.844989302099)
variable C56 equal 0.5*(-5.35560290270615+6.7414142366165)
variable C66 equal 0.5*(25.4683249519282+2.1284235009892)

# Delete dir to make sure it is not reused

variable dir delete

# Output final values

variable C11all equal 27.9705828692797
variable C22all equal 33.1792540302573
variable C33all equal 46.5847250308562

variable C12all equal 0.5*(11.8317015495582+11.6232983805431)
variable C13all equal 0.5*(12.875318633018+11.4414465161347)
variable C23all equal 0.5*(16.9895187706802+16.8565618169459)

variable C44all equal 14.433893948327
variable C55all equal 14.7560080813553
variable C66all equal 13.7983742264587

variable C14all equal 0.5*(2.57122377017555+3.78329080809478)
variable C15all equal 0.5*(2.95018304508575+1.63295062433045)
variable C16all equal 0.5*(-0.0522765178746507+1.6240633944917)

variable C24all equal 0.5*(1.9039437855304+3.05361892160014)
variable C25all equal 0.5*(-0.094445579832799+0.323442622496125)
variable C26all equal 0.5*(7.03655170817285+6.54741968550213)

variable C34all equal 0.5*(2.55312804091995+2.50922093330338)
variable C35all equal 0.5*(-4.36576007407638+-3.50676899619882)
variable C36all equal 0.5*(-3.42684031338338+-2.21888323330485)

variable C45all equal 0.5*(0.80356723141535+0.11000106971045)
variable C46all equal 0.5*(-1.95550874713441+-0.6771321079253)
variable C56all equal 0.5*(0.692905666955175+0.76548073867815)

# Average moduli for cubic crystals

variable C11cubic equal (27.9705828692797+33.1792540302573+46.5847250308562)/3.0
variable C12cubic equal (11.7274999650507+12.1583825745764+16.923040293813)/3.0
variable C44cubic equal (14.433893948327+14.7560080813553+13.7983742264587)/3.0

variable bulkmodulus equal (35.9115206434644+2*13.6029742778134)/3.0
variable shearmodulus1 equal 14.3294254187137
variable shearmodulus2 equal (35.9115206434644-13.6029742778134)/2.0
variable poissonratio equal 1.0/(1.0+35.9115206434644/13.6029742778134)

Elastic Constant 1 1 = 27.9705828692797
Elastic Constant 2 2 = 33.1792540302573
Elastic Constant 3 3 = 46.5847250308562

Elastic Constant 1 2 = 11.7274999650507
Elastic Constant 1 3 = 12.1583825745764
Elastic Constant 2 3 = 16.923040293813

Elastic Constant 4 4 = 14.433893948327
Elastic Constant 5 5 = 14.7560080813553
Elastic Constant 6 6 = 13.7983742264587

Elastic Constant 1 4 = 3.17725728913516
Elastic Constant 1 5 = 2.2915668347081
Elastic Constant 1 6 = 0.785893438308525

Elastic Constant 2 4 = 2.47878135356527
Elastic Constant 2 5 = 0.114498521331663
Elastic Constant 2 6 = 6.79198569683749

Elastic Constant 3 4 = 2.53117448711166
Elastic Constant 3 5 = -3.9362645351376
Elastic Constant 3 6 = -2.82286177334412

Elastic Constant 4 5 = 0.4567841505629
Elastic Constant 4 6 = -1.31632042752986
Elastic Constant 5 6 = 0.729193202816663

Bulk Modulus = 21.0391563996971 GPa
Shear Modulus 1 = 14.3294254187137 GPa
Shear Modulus 2 = 11.1542731828255 GPa
Poisson Ratio = 0.274727113735897

variable rho equal density
density (g/cm^3) = 1.52733640921889
