units           real
atom_style      full
boundary        p p p

pair_style      lj/cut 5.000
bond_style      harmonic
angle_style     hybrid fourier cosine/periodic
dihedral_style  harmonic

special_bonds   lj/coul 0.0 0.0 1.0
dielectric      1.0
pair_modify     tail yes mix arithmetic
box tilt        large

The 'box' command has been removed and will be ignored

read_data       ./dat/data.333U-50C-5-vasp
Reading data file ...
  triclinic box = (0 0 0) to (15.678164 13.54433 17.638255) with tilt (-7.040851 -1.014405 0.675028)
  reading atoms ...
  350 atoms
  scanning bonds ...
  scanning angles ...
  scanning dihedrals ...
  triclinic box = (0 0 0) to (15.678164 13.54433 17.638255) with tilt (-7.040851 -1.014405 0.675028)
  reading bonds ...
  375 bonds
  reading angles ...
  709 angles
  reading dihedrals ...
  879 dihedrals
Finding 1-2 1-3 1-4 neighbors ...
     4 = max # of 1-2 neighbors
     8 = max # of 1-3 neighbors
    12 = max # of special neighbors

#### Atom Groupings ####
group           fram     id   1:350
350 atoms in group fram
#### END Atom Groupings ####

compute am all property/atom mass
dump        atom_pos all extxyz 100 ./output/333U-50C-5-vasp.lammpstrj
dump_modify atom_pos element Si C H O mass yes
thermo          1000
thermo_style    custom step temp pe ke etotal press vol density

variable up equal 2e-2
variable cfac equal 1.0e-4
variable cunits string GPa

# Define minimization parameters
variable etol equal 0.0
variable ftol equal 1.0e-10
variable maxiter equal 100000
variable maxeval equal 100000
variable dmax equal 1.0e-2

variable temp equal 300.0
variable thermal_damp index 100.0
variable pressure_damp index 500.0

fix relax all box/relax aniso 0.0 vmax 0.001
unfix relax
minimize 0 1e-10 100000 100000
Generated 6 of 6 mixed pair_coeff terms from arithmetic mixing rule
For more information see https://docs.lammps.org/err0027 (src/domain.cpp:1052)
Step          Temp          PotEng         KinEng         TotEng         Press          Volume        Density
0   0              1319.1939      0              1319.1939      99835.255      3745.4875      1.7340167
Loop time of 0.0583311 on 1 procs for 112 steps with 350 atoms

Minimization stats:
  Stopping criterion = linesearch alpha is zero
  Energy initial, next-to-last, final =
  Force two-norm initial, final = 888.38385 21.595923
  Force max component initial, final = 114.04596 4.9880846
  Final line search alpha, max atom move = 1.4077314e-11 7.0218833e-11
  Iterations, force evaluations = 112 277

# Generating the full routine as described in the paper for UFF
fix nvt_relax   all nvt temp 300 300 100.0
run 100000      # 100 picoseconds
Generated 6 of 6 mixed pair_coeff terms from arithmetic mixing rule
For more information see https://docs.lammps.org/err0027 (src/domain.cpp:1052)
Step          Temp          PotEng         KinEng         TotEng         Press          Volume        Density
112   0              29.053201      0              29.053201      10965.688      3745.4875      1.7340167
Averages over the last 51 of 102 rows, steps 51000 to 100112:
Temp PotEng KinEng TotEng Press Volume Density
302.35 328.692 314.535 643.227 18568.5 3745.49 1.73402
Loop time of 20.7244 on 1 procs for 100000 steps with 350 atoms

unfix           nvt_relax

fix npt_relax   all npt temp 300 300 100.0 iso 0 0 500.0
run 100000      # 100 picoseconds
Generated 6 of 6 mixed pair_coeff terms from arithmetic mixing rule
For more information see https://docs.lammps.org/err0027 (src/domain.cpp:1052)
Step          Temp          PotEng         KinEng         TotEng         Press          Volume        Density
100112   325.02677      320.78619      338.12623      658.91242      24541.748      3745.4875      1.7340167
Averages over the last 51 of 102 rows, steps 151000 to 200112:
Temp PotEng KinEng TotEng Press Volume Density
296.979 314.919 308.948 623.867 -2024.83 3967.29 1.63713
Loop time of 25.1884 on 1 procs for 100000 steps with 350 atoms

unfix           npt_relax

# run 100000      # 100 picoseconds
# unfix           nvt_heat
#
# run 100000      # 100 picoseconds
# unfix           npt_heat
#
# run 700000      # 700 picoseconds
# unfix           cooling_npt
#
# run 100000      # 100 picoseconds
# unfix           npt_final

# density computation
variable rho equal density
fix integrate  all npt temp 300 300 100.0 iso 0 0 500.0
fix rho50k all ave/time 10 5000 50000 v_rho mode scalar ave one
run 50000
Generated 6 of 6 mixed pair_coeff terms from arithmetic mixing rule
For more information see https://docs.lammps.org/err0027 (src/domain.cpp:1052)
Step          Temp          PotEng         KinEng         TotEng         Press          Volume        Density
200112   298.6215       303.3775       310.65676      614.03426      6341.5704      3920.8219      1.6564736
Averages over the last 26 of 52 rows, steps 226000 to 250112:
Temp PotEng KinEng TotEng Press Volume Density
301.898 313.628 314.065 627.692 -25.7518 3962.82 1.63896
Loop time of 12.2407 on 1 procs for 50000 steps with 350 atoms

unfix integrate
unfix rho50k

# Compute initial state
fix 3 all box/relax  aniso 0.0
minimize 0 1e-10 100000 100000
Generated 6 of 6 mixed pair_coeff terms from arithmetic mixing rule
 (src/min.cpp:222)
For more information see https://docs.lammps.org/err0027 (src/domain.cpp:1052)
Step          Temp          PotEng         KinEng         TotEng         Press          Volume        Density
250112   274.88308      312.30109      285.96161      598.2627      -2693.7314      3993.4176      1.6263608
Loop time of 0.0895675 on 1 procs for 318 steps with 350 atoms

Minimization stats:
  Stopping criterion = linesearch alpha is zero
  Energy initial, next-to-last, final =
  Force two-norm initial, final = 868.18473 128.81275
  Force max component initial, final = 374.2862 17.409324
  Final line search alpha, max atom move = 6.9456233e-13 1.2091861e-11
  Iterations, force evaluations = 318 341

variable tmp equal pxx
variable pxx0 equal 3204.23357852857
variable tmp equal pyy
variable pyy0 equal 3034.58598933429
variable tmp equal pzz
variable pzz0 equal 2768.88833389004
variable tmp equal pyz
variable pyz0 equal -138.602611814759
variable tmp equal pxz
variable pxz0 equal -5196.81583687505
variable tmp equal pxy
variable pxy0 equal 3282.45582343635

variable tmp equal lx
variable lx0 equal 15.9629790609699
variable tmp equal ly
variable ly0 equal 13.8226716444906
variable tmp equal lz
variable lz0 equal 18.0148399249157

# These formulas define the derivatives w.r.t. strain components
# Constants uses $, variables use v_
variable d1 equal -(v_pxx1-3204.23357852857)/(v_delta/v_len0)*0.0001
variable d2 equal -(v_pyy1-3034.58598933429)/(v_delta/v_len0)*0.0001
variable d3 equal -(v_pzz1-2768.88833389004)/(v_delta/v_len0)*0.0001
variable d4 equal -(v_pyz1--138.602611814759)/(v_delta/v_len0)*0.0001
variable d5 equal -(v_pxz1--5196.81583687505)/(v_delta/v_len0)*0.0001
variable d6 equal -(v_pxy1-3282.45582343635)/(v_delta/v_len0)*0.0001

# Write restart
unfix 3
write_restart restart_333U-50C-5-vasp.equil
System init for write_restart ...
Generated 6 of 6 mixed pair_coeff terms from arithmetic mixing rule

# uxx Perturbation

variable dir equal 1
include ./input/displace_333U-50C-5-vasp.mod
variable len0 equal 15.9629790609699

# Reset box and simulation parameters

clear
box tilt large

The 'box' command has been removed and will be ignored

read_restart restart_333U-50C-5-vasp.equil
Reading restart file ...
  restart file = 10 Sep 2025, LAMMPS = 10 Sep 2025
  restoring atom style full from restart
  triclinic box = (-0.14240753 -0.13917082 -0.18829246) to (15.820572 13.683501 17.826547) with tilt (-7.1855434 -1.036063 0.68944016)
  restoring pair style lj/cut from restart
  restoring bond style harmonic from restart
  restoring angle style hybrid from restart
  restoring dihedral style harmonic from restart
  350 atoms
  375 bonds
  709 angles
  879 dihedrals
Finding 1-2 1-3 1-4 neighbors ...
     4 = max # of 1-2 neighbors
     8 = max # of 1-3 neighbors
    12 = max # of special neighbors
  read_restart CPU = 0.002 seconds
include ./input/angles_333U-50C-5-vasp.mod
angle_style hybrid fourier cosine/periodic
angle_coeff 1 fourier 157.882480        0.343737        0.374972        0.281246
angle_coeff 2 fourier 221.735285        0.343737        0.374972        0.281246
angle_coeff 3 fourier 32.417871        0.343737        0.374972        0.281246
angle_coeff 4 fourier 83.380072        0.343737        0.374972        0.281246
angle_coeff 5 fourier 114.246973        0.343737        0.374972        0.281246
angle_coeff 6 fourier 58.020602        0.343737        0.374972        0.281246
angle_coeff 7 fourier 90.420412        0.343737        0.374972        0.281246
angle_coeff 8 fourier 75.498766        0.343737        0.374972        0.281246
angle_coeff 9 cosine/periodic 88.853997              -1               3

# Negative deformation

variable delta equal -0.02*15.9629790609699
variable deltaxy equal -0.02*xy
variable deltaxz equal -0.02*xz
variable deltayz equal -0.02*yz
change_box all x delta 0 -0.319259581219398 xy delta 0.143710868637689 xz delta 0.0207212603446704 remap units box
Changing box ...
  triclinic box = (-0.14240753 -0.13917082 -0.18829246) to (15.501312 13.683501 17.826547) with tilt (-7.1855434 -1.036063 0.68944016)
  triclinic box = (-0.14240753 -0.13917082 -0.18829246) to (15.501312 13.683501 17.826547) with tilt (-7.0418326 -1.036063 0.68944016)
  triclinic box = (-0.14240753 -0.13917082 -0.18829246) to (15.501312 13.683501 17.826547) with tilt (-7.0418326 -1.0153418 0.68944016)

# Relax atoms positions

minimize 0 1e-10 100000 100000
Generated 6 of 6 mixed pair_coeff terms from arithmetic mixing rule
For more information see https://docs.lammps.org/err0027 (src/domain.cpp:1052)
Step          Temp          E_pair         E_mol          TotEng         Press
250430   274.88308     -412.60218      542.03892      415.39835      27710.776
Loop time of 0.0328628 on 1 procs for 38 steps with 350 atoms

Minimization stats:
  Stopping criterion = linesearch alpha is zero
  Energy initial, next-to-last, final =
  Force two-norm initial, final = 216.55846 14.48646
  Force max component initial, final = 22.909713 1.69945
  Final line search alpha, max atom move = 3.1199029e-11 5.3021191e-11
  Iterations, force evaluations = 38 144

# Obtain new stress tensor

variable tmp equal pxx
variable pxx1 equal 9940.0530739119
variable tmp equal pyy
variable pyy1 equal 1132.39849609268
variable tmp equal pzz
variable pzz1 equal 4518.5078547313
variable tmp equal pxy
variable pxy1 equal 4337.56955681992
variable tmp equal pxz
variable pxz1 equal -3070.56715473291
variable tmp equal pyz
variable pyz1 equal 1046.79641538447

# Compute elastic constant from pressure tensor

variable C1neg equal 33.6790974769167
variable C2neg equal -9.51093746620805
variable C3neg equal 8.7480976042063
variable C4neg equal 5.92699513599615
variable C5neg equal 10.6312434107107
variable C6neg equal 5.27556866691785

# Reset box and simulation parameters

clear
box tilt large

The 'box' command has been removed and will be ignored

read_restart restart_333U-50C-5-vasp.equil
Reading restart file ...
  restart file = 10 Sep 2025, LAMMPS = 10 Sep 2025
  restoring atom style full from restart
  triclinic box = (-0.14240753 -0.13917082 -0.18829246) to (15.820572 13.683501 17.826547) with tilt (-7.1855434 -1.036063 0.68944016)
  restoring pair style lj/cut from restart
  restoring bond style harmonic from restart
  restoring angle style hybrid from restart
  restoring dihedral style harmonic from restart
  350 atoms
  375 bonds
  709 angles
  879 dihedrals
Finding 1-2 1-3 1-4 neighbors ...
     4 = max # of 1-2 neighbors
     8 = max # of 1-3 neighbors
    12 = max # of special neighbors
  read_restart CPU = 0.002 seconds
include ./input/angles_333U-50C-5-vasp.mod
angle_style hybrid fourier cosine/periodic
angle_coeff 1 fourier 157.882480        0.343737        0.374972        0.281246
angle_coeff 2 fourier 221.735285        0.343737        0.374972        0.281246
angle_coeff 3 fourier 32.417871        0.343737        0.374972        0.281246
angle_coeff 4 fourier 83.380072        0.343737        0.374972        0.281246
angle_coeff 5 fourier 114.246973        0.343737        0.374972        0.281246
angle_coeff 6 fourier 58.020602        0.343737        0.374972        0.281246
angle_coeff 7 fourier 90.420412        0.343737        0.374972        0.281246
angle_coeff 8 fourier 75.498766        0.343737        0.374972        0.281246
angle_coeff 9 cosine/periodic 88.853997              -1               3

# Positive deformation

variable delta equal 0.02*15.9629790609699
variable deltaxy equal 0.02*xy
variable deltaxz equal 0.02*xz
variable deltayz equal 0.02*yz
change_box all x delta 0 0.319259581219398 xy delta -0.143710868637689 xz delta -0.0207212603446704 remap units box
Changing box ...
  triclinic box = (-0.14240753 -0.13917082 -0.18829246) to (16.139831 13.683501 17.826547) with tilt (-7.1855434 -1.036063 0.68944016)
  triclinic box = (-0.14240753 -0.13917082 -0.18829246) to (16.139831 13.683501 17.826547) with tilt (-7.3292543 -1.036063 0.68944016)
  triclinic box = (-0.14240753 -0.13917082 -0.18829246) to (16.139831 13.683501 17.826547) with tilt (-7.3292543 -1.0567843 0.68944016)

# Relax atoms positions

minimize 0 1e-10 100000 100000
Generated 6 of 6 mixed pair_coeff terms from arithmetic mixing rule
For more information see https://docs.lammps.org/err0027 (src/domain.cpp:1052)
Step          Temp          E_pair         E_mol          TotEng         Press
250430   274.88308     -446.84312      576.90958      416.02807     -20791.452
Loop time of 0.0255945 on 1 procs for 30 steps with 350 atoms

Minimization stats:
  Stopping criterion = linesearch alpha is zero
  Energy initial, next-to-last, final =
  Force two-norm initial, final = 208.41855 20.483801
  Force max component initial, final = 21.758723 3.2371658
  Final line search alpha, max atom move = 1.5068073e-11 4.8777852e-11
  Iterations, force evaluations = 30 117

# Obtain new stress tensor

variable tmp equal pe
variable e1 equal 11.4582589963542
variable tmp equal press
variable p1 equal -8347.02610422738
variable tmp equal pxx
variable pxx1 equal -12686.4109155056
variable tmp equal pyy
variable pyy1 equal -7826.09581743067
variable tmp equal pzz
variable pzz1 equal -4528.57157974586
variable tmp equal pxy
variable pxy1 equal 3571.060153186
variable tmp equal pxz
variable pxz1 equal -4214.31720703197
variable tmp equal pyz
variable pyz1 equal 1634.56871243256

# Compute elastic constant from pressure tensor

variable C1pos equal 79.4532224701709
variable C2pos equal 54.3034090338248
variable C3pos equal 36.4872995681795
variable C4pos equal -8.8658566212366
variable C5pos equal -4.9124931492154
variable C6pos equal -1.44302164874825

# Combine positive and negative

variable C11 equal 0.5*(33.6790974769167+79.4532224701709)
variable C21 equal 0.5*(-9.51093746620805+54.3034090338248)
variable C31 equal 0.5*(8.7480976042063+36.4872995681795)
variable C41 equal 0.5*(5.92699513599615+-8.8658566212366)
variable C51 equal 0.5*(10.6312434107107+-4.9124931492154)
variable C61 equal 0.5*(5.27556866691785+-1.44302164874825)

# Delete dir to make sure it is not reused

variable dir delete

# uyy Perturbation

variable dir equal 2
include ./input/displace_333U-50C-5-vasp.mod
variable len0 equal 13.8226716444906

# Reset box and simulation parameters

clear
box tilt large

The 'box' command has been removed and will be ignored

read_restart restart_333U-50C-5-vasp.equil
Reading restart file ...
  restart file = 10 Sep 2025, LAMMPS = 10 Sep 2025
  restoring atom style full from restart
  triclinic box = (-0.14240753 -0.13917082 -0.18829246) to (15.820572 13.683501 17.826547) with tilt (-7.1855434 -1.036063 0.68944016)
  restoring pair style lj/cut from restart
  restoring bond style harmonic from restart
  restoring angle style hybrid from restart
  restoring dihedral style harmonic from restart
  350 atoms
  375 bonds
  709 angles
  879 dihedrals
Finding 1-2 1-3 1-4 neighbors ...
     4 = max # of 1-2 neighbors
     8 = max # of 1-3 neighbors
    12 = max # of special neighbors
  read_restart CPU = 0.002 seconds
include ./input/angles_333U-50C-5-vasp.mod
angle_style hybrid fourier cosine/periodic
angle_coeff 1 fourier 157.882480        0.343737        0.374972        0.281246
angle_coeff 2 fourier 221.735285        0.343737        0.374972        0.281246
angle_coeff 3 fourier 32.417871        0.343737        0.374972        0.281246
angle_coeff 4 fourier 83.380072        0.343737        0.374972        0.281246
angle_coeff 5 fourier 114.246973        0.343737        0.374972        0.281246
angle_coeff 6 fourier 58.020602        0.343737        0.374972        0.281246
angle_coeff 7 fourier 90.420412        0.343737        0.374972        0.281246
angle_coeff 8 fourier 75.498766        0.343737        0.374972        0.281246
angle_coeff 9 cosine/periodic 88.853997              -1               3

# Negative deformation

variable delta equal -0.02*13.8226716444906
variable deltaxy equal -0.02*xy
variable deltaxz equal -0.02*xz
variable deltayz equal -0.02*yz
change_box all y delta 0 -0.276453432889812 yz delta -0.0137888032175924 remap units box
Changing box ...
  triclinic box = (-0.14240753 -0.13917082 -0.18829246) to (15.820572 13.407047 17.826547) with tilt (-7.1855434 -1.036063 0.68944016)
  triclinic box = (-0.14240753 -0.13917082 -0.18829246) to (15.820572 13.407047 17.826547) with tilt (-7.1855434 -1.036063 0.67565136)

# Relax atoms positions

minimize 0 1e-10 100000 100000
Generated 6 of 6 mixed pair_coeff terms from arithmetic mixing rule
For more information see https://docs.lammps.org/err0027 (src/domain.cpp:1052)
Step          Temp          E_pair         E_mol          TotEng         Press
250430   274.88308     -415.34556      545.55032      416.16637      28777.196
Loop time of 0.0389737 on 1 procs for 30 steps with 350 atoms

Minimization stats:
  Stopping criterion = linesearch alpha is zero
  Energy initial, next-to-last, final =
  Force two-norm initial, final = 221.23398 10.013222
  Force max component initial, final = 25.470731 1.7298987
  Final line search alpha, max atom move = 1.0767365e-10 1.8626451e-10
  Iterations, force evaluations = 30 169

# Obtain new stress tensor

variable tmp equal pxx
variable pxx1 equal 3946.90279794819
variable tmp equal pyy
variable pyy1 equal 9211.8278203806
variable tmp equal pzz
variable pzz1 equal 4860.60987104415
variable tmp equal pxy
variable pxy1 equal 3986.3198624399
variable tmp equal pxz
variable pxz1 equal -4891.57470290237
variable tmp equal pyz
variable pyz1 equal 1682.88108533821

# Compute elastic constant from pressure tensor

variable C1neg equal 3.7133460970981
variable C2neg equal 30.8862091552316
variable C3neg equal 10.4586076857706
variable C4neg equal 9.10741848576484
variable C5neg equal 1.5262056698634
variable C6neg equal 3.51932019501775

# Reset box and simulation parameters

clear
box tilt large

The 'box' command has been removed and will be ignored

read_restart restart_333U-50C-5-vasp.equil
Reading restart file ...
  restart file = 10 Sep 2025, LAMMPS = 10 Sep 2025
  restoring atom style full from restart
  triclinic box = (-0.14240753 -0.13917082 -0.18829246) to (15.820572 13.683501 17.826547) with tilt (-7.1855434 -1.036063 0.68944016)
  restoring pair style lj/cut from restart
  restoring bond style harmonic from restart
  restoring angle style hybrid from restart
  restoring dihedral style harmonic from restart
  350 atoms
  375 bonds
  709 angles
  879 dihedrals
Finding 1-2 1-3 1-4 neighbors ...
     4 = max # of 1-2 neighbors
     8 = max # of 1-3 neighbors
    12 = max # of special neighbors
  read_restart CPU = 0.001 seconds
include ./input/angles_333U-50C-5-vasp.mod
angle_style hybrid fourier cosine/periodic
angle_coeff 1 fourier 157.882480        0.343737        0.374972        0.281246
angle_coeff 2 fourier 221.735285        0.343737        0.374972        0.281246
angle_coeff 3 fourier 32.417871        0.343737        0.374972        0.281246
angle_coeff 4 fourier 83.380072        0.343737        0.374972        0.281246
angle_coeff 5 fourier 114.246973        0.343737        0.374972        0.281246
angle_coeff 6 fourier 58.020602        0.343737        0.374972        0.281246
angle_coeff 7 fourier 90.420412        0.343737        0.374972        0.281246
angle_coeff 8 fourier 75.498766        0.343737        0.374972        0.281246
angle_coeff 9 cosine/periodic 88.853997              -1               3

# Positive deformation

variable delta equal 0.02*13.8226716444906
variable deltaxy equal 0.02*xy
variable deltaxz equal 0.02*xz
variable deltayz equal 0.02*yz
change_box all y delta 0 0.276453432889812 yz delta 0.0137888032175924 remap units box
Changing box ...
  triclinic box = (-0.14240753 -0.13917082 -0.18829246) to (15.820572 13.959954 17.826547) with tilt (-7.1855434 -1.036063 0.68944016)
  triclinic box = (-0.14240753 -0.13917082 -0.18829246) to (15.820572 13.959954 17.826547) with tilt (-7.1855434 -1.036063 0.70322896)

# Relax atoms positions

minimize 0 1e-10 100000 100000
Generated 6 of 6 mixed pair_coeff terms from arithmetic mixing rule
For more information see https://docs.lammps.org/err0027 (src/domain.cpp:1052)
Step          Temp          E_pair         E_mol          TotEng         Press
250430   274.88308     -445.73226      577.29969      417.52904     -21932.697
Loop time of 0.0271694 on 1 procs for 34 steps with 350 atoms

Minimization stats:
  Stopping criterion = linesearch alpha is zero
  Energy initial, next-to-last, final =
  Force two-norm initial, final = 213.80499 17.841698
  Force max component initial, final = 26.011713 2.733546
  Final line search alpha, max atom move = 3.0215777e-11 8.2596216e-11
  Iterations, force evaluations = 34 122

# Obtain new stress tensor

variable tmp equal pe
variable e1 equal 12.667478341917
variable tmp equal press
variable p1 equal -8091.34899091326
variable tmp equal pxx
variable pxx1 equal -5607.02863500408
variable tmp equal pyy
variable pyy1 equal -14802.866673129
variable tmp equal pzz
variable pzz1 equal -3864.15166460668
variable tmp equal pxy
variable pxy1 equal 4395.06565475713
variable tmp equal pxz
variable pxz1 equal -3111.11706642605
variable tmp equal pyz
variable pyz1 equal 1024.30523188401

# Compute elastic constant from pressure tensor

variable C1pos equal 44.0563110676632
variable C2pos equal 89.1872633123164
variable C3pos equal 33.1651999924836
variable C4pos equal -5.81453921849385
variable C5pos equal -10.428493852245
variable C6pos equal -5.5630491566039

# Combine positive and negative

variable C12 equal 0.5*(3.7133460970981+44.0563110676632)
variable C22 equal 0.5*(30.8862091552316+89.1872633123164)
variable C32 equal 0.5*(10.4586076857706+33.1651999924836)
variable C42 equal 0.5*(9.10741848576484+-5.81453921849385)
variable C52 equal 0.5*(1.5262056698634+-10.428493852245)
variable C62 equal 0.5*(3.51932019501775+-5.5630491566039)

# Delete dir to make sure it is not reused

variable dir delete

# uzz Perturbation

variable dir equal 3
include ./input/displace_333U-50C-5-vasp.mod
variable len0 equal 18.0148399249157

# Reset box and simulation parameters

clear
box tilt large

The 'box' command has been removed and will be ignored

read_restart restart_333U-50C-5-vasp.equil
Reading restart file ...
  restart file = 10 Sep 2025, LAMMPS = 10 Sep 2025
  restoring atom style full from restart
  triclinic box = (-0.14240753 -0.13917082 -0.18829246) to (15.820572 13.683501 17.826547) with tilt (-7.1855434 -1.036063 0.68944016)
  restoring pair style lj/cut from restart
  restoring bond style harmonic from restart
  restoring angle style hybrid from restart
  restoring dihedral style harmonic from restart
  350 atoms
  375 bonds
  709 angles
  879 dihedrals
Finding 1-2 1-3 1-4 neighbors ...
     4 = max # of 1-2 neighbors
     8 = max # of 1-3 neighbors
    12 = max # of special neighbors
  read_restart CPU = 0.001 seconds
include ./input/angles_333U-50C-5-vasp.mod
angle_style hybrid fourier cosine/periodic
angle_coeff 1 fourier 157.882480        0.343737        0.374972        0.281246
angle_coeff 2 fourier 221.735285        0.343737        0.374972        0.281246
angle_coeff 3 fourier 32.417871        0.343737        0.374972        0.281246
angle_coeff 4 fourier 83.380072        0.343737        0.374972        0.281246
angle_coeff 5 fourier 114.246973        0.343737        0.374972        0.281246
angle_coeff 6 fourier 58.020602        0.343737        0.374972        0.281246
angle_coeff 7 fourier 90.420412        0.343737        0.374972        0.281246
angle_coeff 8 fourier 75.498766        0.343737        0.374972        0.281246
angle_coeff 9 cosine/periodic 88.853997              -1               3

# Negative deformation

variable delta equal -0.02*18.0148399249157
variable deltaxy equal -0.02*xy
variable deltaxz equal -0.02*xz
variable deltayz equal -0.02*yz
change_box all z delta 0 -0.360296798498314 remap units box
Changing box ...
  triclinic box = (-0.14240753 -0.13917082 -0.18829246) to (15.820572 13.683501 17.466251) with tilt (-7.1855434 -1.036063 0.68944016)

# Relax atoms positions

minimize 0 1e-10 100000 100000
Generated 6 of 6 mixed pair_coeff terms from arithmetic mixing rule
For more information see https://docs.lammps.org/err0027 (src/domain.cpp:1052)
Step          Temp          E_pair         E_mol          TotEng         Press
250430   274.88308     -411.71816      542.1202       416.36365      28606.179
Loop time of 0.131836 on 1 procs for 54 steps with 350 atoms

Minimization stats:
  Stopping criterion = linesearch alpha is zero
  Energy initial, next-to-last, final =
  Force two-norm initial, final = 207.56139 11.854413
  Force max component initial, final = 21.887791 1.427775
  Final line search alpha, max atom move = 6.5228944e-11 9.3132257e-11
  Iterations, force evaluations = 54 590

# Obtain new stress tensor

variable tmp equal pxx
variable pxx1 equal 2747.10611520768
variable tmp equal pyy
variable pyy1 equal 639.763275105356
variable tmp equal pzz
variable pzz1 equal 11850.8479078856
variable tmp equal pxy
variable pxy1 equal 4883.69299868398
variable tmp equal pxz
variable pxz1 equal -4030.36551010846
variable tmp equal pyz
variable pyz1 equal 1472.29678714948

# Compute elastic constant from pressure tensor

variable C1neg equal -2.28563731660445
variable C2neg equal -11.9741135711447
variable C3neg equal 45.4097978699778
variable C4neg equal 8.0544969948212
variable C5neg equal 5.83225163383295
variable C6neg equal 8.00618587623815

# Reset box and simulation parameters

clear
box tilt large

The 'box' command has been removed and will be ignored

read_restart restart_333U-50C-5-vasp.equil
Reading restart file ...
  restart file = 10 Sep 2025, LAMMPS = 10 Sep 2025
  restoring atom style full from restart
  triclinic box = (-0.14240753 -0.13917082 -0.18829246) to (15.820572 13.683501 17.826547) with tilt (-7.1855434 -1.036063 0.68944016)
  restoring pair style lj/cut from restart
  restoring bond style harmonic from restart
  restoring angle style hybrid from restart
  restoring dihedral style harmonic from restart
  350 atoms
  375 bonds
  709 angles
  879 dihedrals
Finding 1-2 1-3 1-4 neighbors ...
     4 = max # of 1-2 neighbors
     8 = max # of 1-3 neighbors
    12 = max # of special neighbors
  read_restart CPU = 0.001 seconds
include ./input/angles_333U-50C-5-vasp.mod
angle_style hybrid fourier cosine/periodic
angle_coeff 1 fourier 157.882480        0.343737        0.374972        0.281246
angle_coeff 2 fourier 221.735285        0.343737        0.374972        0.281246
angle_coeff 3 fourier 32.417871        0.343737        0.374972        0.281246
angle_coeff 4 fourier 83.380072        0.343737        0.374972        0.281246
angle_coeff 5 fourier 114.246973        0.343737        0.374972        0.281246
angle_coeff 6 fourier 58.020602        0.343737        0.374972        0.281246
angle_coeff 7 fourier 90.420412        0.343737        0.374972        0.281246
angle_coeff 8 fourier 75.498766        0.343737        0.374972        0.281246
angle_coeff 9 cosine/periodic 88.853997              -1               3

# Positive deformation

variable delta equal 0.02*18.0148399249157
variable deltaxy equal 0.02*xy
variable deltaxz equal 0.02*xz
variable deltayz equal 0.02*yz
change_box all z delta 0 0.360296798498314 remap units box
Changing box ...
  triclinic box = (-0.14240753 -0.13917082 -0.18829246) to (15.820572 13.683501 18.186844) with tilt (-7.1855434 -1.036063 0.68944016)

# Relax atoms positions

minimize 0 1e-10 100000 100000
Generated 6 of 6 mixed pair_coeff terms from arithmetic mixing rule
For more information see https://docs.lammps.org/err0027 (src/domain.cpp:1052)
Step          Temp          E_pair         E_mol          TotEng         Press
250430   274.88308     -448.71072      577.77814      415.02903     -21695.2
Loop time of 0.0284344 on 1 procs for 36 steps with 350 atoms

Minimization stats:
  Stopping criterion = linesearch alpha is zero
  Energy initial, next-to-last, final =
  Force two-norm initial, final = 209.06467 18.043691
  Force max component initial, final = 26.041631 2.9836571
  Final line search alpha, max atom move = 2.7126272e-11 8.0935495e-11
  Iterations, force evaluations = 36 126

# Obtain new stress tensor

variable tmp equal pe
variable e1 equal 6.17805748524148
variable tmp equal press
variable p1 equal -7983.03588112678
variable tmp equal pxx
variable pxx1 equal -5784.81538330313
variable tmp equal pyy
variable pyy1 equal -7429.35642476176
variable tmp equal pzz
variable pzz1 equal -10734.9358353155
variable tmp equal pxy
variable pxy1 equal 3275.37097494561
variable tmp equal pxz
variable pxz1 equal -3295.76316706885
variable tmp equal pyz
variable pyz1 equal 827.627251964153

# Compute elastic constant from pressure tensor

variable C1pos equal 44.9452448091585
variable C2pos equal 52.3197120704803
variable C3pos equal 67.5191208460277
variable C4pos equal -4.83114931889456
variable C5pos equal -9.505263349031
variable C6pos equal 0.0354242424536983

# Combine positive and negative

variable C13 equal 0.5*(-2.28563731660445+44.9452448091585)
variable C23 equal 0.5*(-11.9741135711447+52.3197120704803)
variable C33 equal 0.5*(45.4097978699778+67.5191208460277)
variable C43 equal 0.5*(8.0544969948212+-4.83114931889456)
variable C53 equal 0.5*(5.83225163383295+-9.505263349031)
variable C63 equal 0.5*(8.00618587623815+0.0354242424536983)

# Delete dir to make sure it is not reused

variable dir delete

# uyz Perturbation

variable dir equal 4
include ./input/displace_333U-50C-5-vasp.mod
variable len0 equal 18.0148399249157

# Reset box and simulation parameters

clear
box tilt large

The 'box' command has been removed and will be ignored

read_restart restart_333U-50C-5-vasp.equil
Reading restart file ...
  restart file = 10 Sep 2025, LAMMPS = 10 Sep 2025
  restoring atom style full from restart
  triclinic box = (-0.14240753 -0.13917082 -0.18829246) to (15.820572 13.683501 17.826547) with tilt (-7.1855434 -1.036063 0.68944016)
  restoring pair style lj/cut from restart
  restoring bond style harmonic from restart
  restoring angle style hybrid from restart
  restoring dihedral style harmonic from restart
  350 atoms
  375 bonds
  709 angles
  879 dihedrals
Finding 1-2 1-3 1-4 neighbors ...
     4 = max # of 1-2 neighbors
     8 = max # of 1-3 neighbors
    12 = max # of special neighbors
  read_restart CPU = 0.001 seconds
include ./input/angles_333U-50C-5-vasp.mod
angle_style hybrid fourier cosine/periodic
angle_coeff 1 fourier 157.882480        0.343737        0.374972        0.281246
angle_coeff 2 fourier 221.735285        0.343737        0.374972        0.281246
angle_coeff 3 fourier 32.417871        0.343737        0.374972        0.281246
angle_coeff 4 fourier 83.380072        0.343737        0.374972        0.281246
angle_coeff 5 fourier 114.246973        0.343737        0.374972        0.281246
angle_coeff 6 fourier 58.020602        0.343737        0.374972        0.281246
angle_coeff 7 fourier 90.420412        0.343737        0.374972        0.281246
angle_coeff 8 fourier 75.498766        0.343737        0.374972        0.281246
angle_coeff 9 cosine/periodic 88.853997              -1               3

# Negative deformation

variable delta equal -0.02*18.0148399249157
variable deltaxy equal -0.02*xy
variable deltaxz equal -0.02*xz
variable deltayz equal -0.02*yz
change_box all yz delta -0.360296798498314 remap units box
Changing box ...
  triclinic box = (-0.14240753 -0.13917082 -0.18829246) to (15.820572 13.683501 17.826547) with tilt (-7.1855434 -1.036063 0.32914336)

# Relax atoms positions

minimize 0 1e-10 100000 100000
Generated 6 of 6 mixed pair_coeff terms from arithmetic mixing rule
For more information see https://docs.lammps.org/err0027 (src/domain.cpp:1052)
Step          Temp          E_pair         E_mol          TotEng         Press
250430   274.88308     -430.6304       543.40305      398.73426      2550.763
Loop time of 0.11591 on 1 procs for 55 steps with 350 atoms

Minimization stats:
  Stopping criterion = linesearch alpha is zero
  Energy initial, next-to-last, final =
  Force two-norm initial, final = 181.91405 4.6911425
  Force max component initial, final = 20.529574 0.56223834
  Final line search alpha, max atom move = 3.3129102e-10 1.8626451e-10
  Iterations, force evaluations = 55 511

# Obtain new stress tensor

variable tmp equal pxx
variable pxx1 equal -2067.03614229908
variable tmp equal pyy
variable pyy1 equal -3279.61062127484
variable tmp equal pzz
variable pzz1 equal 603.054780446958
variable tmp equal pxy
variable pxy1 equal 4305.26090066181
variable tmp equal pxz
variable pxz1 equal -3521.60838640251
variable tmp equal pyz
variable pyz1 equal 5291.22192678624

# Compute elastic constant from pressure tensor

variable C1neg equal -26.3563486041383
variable C2neg equal -31.5709830530457
variable C3neg equal -10.8291677672154
variable C4neg equal 27.149122693005
variable C5neg equal 8.3760372523627
variable C6neg equal 5.1140253861273

# Reset box and simulation parameters

clear
box tilt large

The 'box' command has been removed and will be ignored

read_restart restart_333U-50C-5-vasp.equil
Reading restart file ...
  restart file = 10 Sep 2025, LAMMPS = 10 Sep 2025
  restoring atom style full from restart
  triclinic box = (-0.14240753 -0.13917082 -0.18829246) to (15.820572 13.683501 17.826547) with tilt (-7.1855434 -1.036063 0.68944016)
  restoring pair style lj/cut from restart
  restoring bond style harmonic from restart
  restoring angle style hybrid from restart
  restoring dihedral style harmonic from restart
  350 atoms
  375 bonds
  709 angles
  879 dihedrals
Finding 1-2 1-3 1-4 neighbors ...
     4 = max # of 1-2 neighbors
     8 = max # of 1-3 neighbors
    12 = max # of special neighbors
  read_restart CPU = 0.001 seconds
include ./input/angles_333U-50C-5-vasp.mod
angle_style hybrid fourier cosine/periodic
angle_coeff 1 fourier 157.882480        0.343737        0.374972        0.281246
angle_coeff 2 fourier 221.735285        0.343737        0.374972        0.281246
angle_coeff 3 fourier 32.417871        0.343737        0.374972        0.281246
angle_coeff 4 fourier 83.380072        0.343737        0.374972        0.281246
angle_coeff 5 fourier 114.246973        0.343737        0.374972        0.281246
angle_coeff 6 fourier 58.020602        0.343737        0.374972        0.281246
angle_coeff 7 fourier 90.420412        0.343737        0.374972        0.281246
angle_coeff 8 fourier 75.498766        0.343737        0.374972        0.281246
angle_coeff 9 cosine/periodic 88.853997              -1               3

# Positive deformation

variable delta equal 0.02*18.0148399249157
variable deltaxy equal 0.02*xy
variable deltaxz equal 0.02*xz
variable deltayz equal 0.02*yz
change_box all yz delta 0.360296798498314 remap units box
Changing box ...
  triclinic box = (-0.14240753 -0.13917082 -0.18829246) to (15.820572 13.683501 17.826547) with tilt (-7.1855434 -1.036063 1.049737)

# Relax atoms positions

minimize 0 1e-10 100000 100000
Generated 6 of 6 mixed pair_coeff terms from arithmetic mixing rule
For more information see https://docs.lammps.org/err0027 (src/domain.cpp:1052)
Step          Temp          E_pair         E_mol          TotEng         Press
250430   274.88308     -434.19821      547.66735      399.43075      3083.0228
Loop time of 0.120766 on 1 procs for 51 steps with 350 atoms

Minimization stats:
  Stopping criterion = linesearch alpha is zero
  Energy initial, next-to-last, final =
  Force two-norm initial, final = 181.1582 9.2458672
  Force max component initial, final = 20.762636 1.0670126
  Final line search alpha, max atom move = 8.7283187e-11 9.3132257e-11
  Iterations, force evaluations = 51 552

# Obtain new stress tensor

variable tmp equal pe
variable e1 equal -1.33126010976082
variable tmp equal press
variable p1 equal -1859.75019479138
variable tmp equal pxx
variable pxx1 equal -1548.51888633466
variable tmp equal pyy
variable pyy1 equal -3770.58168267449
variable tmp equal pzz
variable pzz1 equal -260.150015364997
variable tmp equal pxy
variable pxy1 equal 3837.90378156175
variable tmp equal pxz
variable pxz1 equal -3745.18148684466
variable tmp equal pyz
variable pyz1 equal -2922.4304040544

# Compute elastic constant from pressure tensor

variable C1pos equal 23.7637623243162
variable C2pos equal 34.0258383600439
variable C3pos equal 15.1451917462752
variable C4pos equal 13.9191389611982
variable C5pos equal -7.25817175015195
variable C6pos equal -2.777239790627

# Combine positive and negative

variable C14 equal 0.5*(-26.3563486041383+23.7637623243162)
variable C24 equal 0.5*(-31.5709830530457+34.0258383600439)
variable C34 equal 0.5*(-10.8291677672154+15.1451917462752)
variable C44 equal 0.5*(27.149122693005+13.9191389611982)
variable C54 equal 0.5*(8.3760372523627+-7.25817175015195)
variable C64 equal 0.5*(5.1140253861273+-2.777239790627)

# Delete dir to make sure it is not reused

variable dir delete

# uxz Perturbation

variable dir equal 5
include ./input/displace_333U-50C-5-vasp.mod
variable len0 equal 18.0148399249157

# Reset box and simulation parameters

clear
box tilt large

The 'box' command has been removed and will be ignored

read_restart restart_333U-50C-5-vasp.equil
Reading restart file ...
  restart file = 10 Sep 2025, LAMMPS = 10 Sep 2025
  restoring atom style full from restart
  triclinic box = (-0.14240753 -0.13917082 -0.18829246) to (15.820572 13.683501 17.826547) with tilt (-7.1855434 -1.036063 0.68944016)
  restoring pair style lj/cut from restart
  restoring bond style harmonic from restart
  restoring angle style hybrid from restart
  restoring dihedral style harmonic from restart
  350 atoms
  375 bonds
  709 angles
  879 dihedrals
Finding 1-2 1-3 1-4 neighbors ...
     4 = max # of 1-2 neighbors
     8 = max # of 1-3 neighbors
    12 = max # of special neighbors
  read_restart CPU = 0.001 seconds
include ./input/angles_333U-50C-5-vasp.mod
angle_style hybrid fourier cosine/periodic
angle_coeff 1 fourier 157.882480        0.343737        0.374972        0.281246
angle_coeff 2 fourier 221.735285        0.343737        0.374972        0.281246
angle_coeff 3 fourier 32.417871        0.343737        0.374972        0.281246
angle_coeff 4 fourier 83.380072        0.343737        0.374972        0.281246
angle_coeff 5 fourier 114.246973        0.343737        0.374972        0.281246
angle_coeff 6 fourier 58.020602        0.343737        0.374972        0.281246
angle_coeff 7 fourier 90.420412        0.343737        0.374972        0.281246
angle_coeff 8 fourier 75.498766        0.343737        0.374972        0.281246
angle_coeff 9 cosine/periodic 88.853997              -1               3

# Negative deformation

variable delta equal -0.02*18.0148399249157
variable deltaxy equal -0.02*xy
variable deltaxz equal -0.02*xz
variable deltayz equal -0.02*yz
change_box all xz delta -0.360296798498314 remap units box
Changing box ...
  triclinic box = (-0.14240753 -0.13917082 -0.18829246) to (15.820572 13.683501 17.826547) with tilt (-7.1855434 -1.3963598 0.68944016)

# Relax atoms positions

minimize 0 1e-10 100000 100000
Generated 6 of 6 mixed pair_coeff terms from arithmetic mixing rule
For more information see https://docs.lammps.org/err0027 (src/domain.cpp:1052)
Step          Temp          E_pair         E_mol          TotEng         Press
250430   274.88308     -431.92147      539.06854      393.10868      2782.8842
Loop time of 0.0249821 on 1 procs for 38 steps with 350 atoms

Minimization stats:
  Stopping criterion = linesearch alpha is zero
  Energy initial, next-to-last, final =
  Force two-norm initial, final = 177.59442 16.176984
  Force max component initial, final = 16.861702 3.0596373
  Final line search alpha, max atom move = 2.4506938e-11 7.4982342e-11
  Iterations, force evaluations = 38 147

# Obtain new stress tensor

variable tmp equal pxx
variable pxx1 equal -1067.73389059664
variable tmp equal pyy
variable pyy1 equal -3988.39550219005
variable tmp equal pzz
variable pzz1 equal -495.175262700339
variable tmp equal pxy
variable pxy1 equal 4138.07577342382
variable tmp equal pxz
variable pxz1 equal -159.905766492548
variable tmp equal pyz
variable pyz1 equal 1421.01700237309

# Compute elastic constant from pressure tensor

variable C1neg equal -21.3598373456261
variable C2neg equal -35.1149074576217
variable C3neg equal -16.3203179829519
variable C4neg equal 7.79809807093925
variable C5neg equal 25.1845503519125
variable C6neg equal 4.27809974993735

# Reset box and simulation parameters

clear
box tilt large

The 'box' command has been removed and will be ignored

read_restart restart_333U-50C-5-vasp.equil
Reading restart file ...
  restart file = 10 Sep 2025, LAMMPS = 10 Sep 2025
  restoring atom style full from restart
  triclinic box = (-0.14240753 -0.13917082 -0.18829246) to (15.820572 13.683501 17.826547) with tilt (-7.1855434 -1.036063 0.68944016)
  restoring pair style lj/cut from restart
  restoring bond style harmonic from restart
  restoring angle style hybrid from restart
  restoring dihedral style harmonic from restart
  350 atoms
  375 bonds
  709 angles
  879 dihedrals
Finding 1-2 1-3 1-4 neighbors ...
     4 = max # of 1-2 neighbors
     8 = max # of 1-3 neighbors
    12 = max # of special neighbors
  read_restart CPU = 0.001 seconds
include ./input/angles_333U-50C-5-vasp.mod
angle_style hybrid fourier cosine/periodic
angle_coeff 1 fourier 157.882480        0.343737        0.374972        0.281246
angle_coeff 2 fourier 221.735285        0.343737        0.374972        0.281246
angle_coeff 3 fourier 32.417871        0.343737        0.374972        0.281246
angle_coeff 4 fourier 83.380072        0.343737        0.374972        0.281246
angle_coeff 5 fourier 114.246973        0.343737        0.374972        0.281246
angle_coeff 6 fourier 58.020602        0.343737        0.374972        0.281246
angle_coeff 7 fourier 90.420412        0.343737        0.374972        0.281246
angle_coeff 8 fourier 75.498766        0.343737        0.374972        0.281246
angle_coeff 9 cosine/periodic 88.853997              -1               3

# Positive deformation

variable delta equal 0.02*18.0148399249157
variable deltaxy equal 0.02*xy
variable deltaxz equal 0.02*xz
variable deltayz equal 0.02*yz
change_box all xz delta 0.360296798498314 remap units box
Changing box ...
  triclinic box = (-0.14240753 -0.13917082 -0.18829246) to (15.820572 13.683501 17.826547) with tilt (-7.1855434 -0.67576622 0.68944016)

# Relax atoms positions

minimize 0 1e-10 100000 100000
Generated 6 of 6 mixed pair_coeff terms from arithmetic mixing rule
For more information see https://docs.lammps.org/err0027 (src/domain.cpp:1052)
Step          Temp          E_pair         E_mol          TotEng         Press
250430   274.88308     -432.15264      550.82579      404.63476      2876.4017
Loop time of 0.0235524 on 1 procs for 39 steps with 350 atoms

Minimization stats:
  Stopping criterion = linesearch alpha is zero
  Energy initial, next-to-last, final =
  Force two-norm initial, final = 176.20229 14.891383
  Force max component initial, final = 17.932822 2.4334765
  Final line search alpha, max atom move = 3.1444493e-11 7.6519437e-11
  Iterations, force evaluations = 39 136

# Obtain new stress tensor

variable tmp equal pe
variable e1 equal 3.37259763973941
variable tmp equal press
variable p1 equal -1748.61214362912
variable tmp equal pxx
variable pxx1 equal -2683.20035485938
variable tmp equal pyy
variable pyy1 equal -2972.81819900552
variable tmp equal pzz
variable pzz1 equal 410.182122977539
variable tmp equal pxy
variable pxy1 equal 3993.05590411433
variable tmp equal pxz
variable pxz1 equal -7005.42400065047
variable tmp equal pyz
variable pyz1 equal 1105.26017649738

# Compute elastic constant from pressure tensor

variable C1pos equal 29.4371696669398
variable C2pos equal 30.0370209416991
variable C3pos equal 11.7935310545625
variable C4pos equal -6.2193139415607
variable C5pos equal 9.0430408188771
variable C6pos equal -3.5530004033899

# Combine positive and negative

variable C15 equal 0.5*(-21.3598373456261+29.4371696669398)
variable C25 equal 0.5*(-35.1149074576217+30.0370209416991)
variable C35 equal 0.5*(-16.3203179829519+11.7935310545625)
variable C45 equal 0.5*(7.79809807093925+-6.2193139415607)
variable C55 equal 0.5*(25.1845503519125+9.0430408188771)
variable C65 equal 0.5*(4.27809974993735+-3.5530004033899)

# Delete dir to make sure it is not reused

variable dir delete

# uxy Perturbation

variable dir equal 6
include ./input/displace_333U-50C-5-vasp.mod
variable len0 equal 13.8226716444906

# Reset box and simulation parameters

clear
box tilt large

The 'box' command has been removed and will be ignored

read_restart restart_333U-50C-5-vasp.equil
Reading restart file ...
  restart file = 10 Sep 2025, LAMMPS = 10 Sep 2025
  restoring atom style full from restart
  triclinic box = (-0.14240753 -0.13917082 -0.18829246) to (15.820572 13.683501 17.826547) with tilt (-7.1855434 -1.036063 0.68944016)
  restoring pair style lj/cut from restart
  restoring bond style harmonic from restart
  restoring angle style hybrid from restart
  restoring dihedral style harmonic from restart
  350 atoms
  375 bonds
  709 angles
  879 dihedrals
Finding 1-2 1-3 1-4 neighbors ...
     4 = max # of 1-2 neighbors
     8 = max # of 1-3 neighbors
    12 = max # of special neighbors
  read_restart CPU = 0.001 seconds
include ./input/angles_333U-50C-5-vasp.mod
angle_style hybrid fourier cosine/periodic
angle_coeff 1 fourier 157.882480        0.343737        0.374972        0.281246
angle_coeff 2 fourier 221.735285        0.343737        0.374972        0.281246
angle_coeff 3 fourier 32.417871        0.343737        0.374972        0.281246
angle_coeff 4 fourier 83.380072        0.343737        0.374972        0.281246
angle_coeff 5 fourier 114.246973        0.343737        0.374972        0.281246
angle_coeff 6 fourier 58.020602        0.343737        0.374972        0.281246
angle_coeff 7 fourier 90.420412        0.343737        0.374972        0.281246
angle_coeff 8 fourier 75.498766        0.343737        0.374972        0.281246
angle_coeff 9 cosine/periodic 88.853997              -1               3

# Negative deformation

variable delta equal -0.02*13.8226716444906
variable deltaxy equal -0.02*xy
variable deltaxz equal -0.02*xz
variable deltayz equal -0.02*yz
change_box all xy delta -0.276453432889812 remap units box
Changing box ...
  triclinic box = (-0.14240753 -0.13917082 -0.18829246) to (15.820572 13.683501 17.826547) with tilt (-7.4619969 -1.036063 0.68944016)

# Relax atoms positions

minimize 0 1e-10 100000 100000
Generated 6 of 6 mixed pair_coeff terms from arithmetic mixing rule
For more information see https://docs.lammps.org/err0027 (src/domain.cpp:1052)
Step          Temp          E_pair         E_mol          TotEng         Press
250430   274.88308     -430.44033      546.94817      402.46945      3134.9772
Loop time of 0.0222307 on 1 procs for 39 steps with 350 atoms

Minimization stats:
  Stopping criterion = linesearch alpha is zero
  Energy initial, next-to-last, final =
  Force two-norm initial, final = 174.57559 13.799702
  Force max component initial, final = 22.851515 1.9574257
  Final line search alpha, max atom move = 6.0528701e-11 1.1848044e-10
  Iterations, force evaluations = 39 130

# Obtain new stress tensor

variable tmp equal pxx
variable pxx1 equal -1584.09320231732
variable tmp equal pyy
variable pyy1 equal -3882.56828060336
variable tmp equal pzz
variable pzz1 equal 834.618473394859
variable tmp equal pxy
variable pxy1 equal 8174.40147333588
variable tmp equal pxz
variable pxz1 equal -3663.67725793287
variable tmp equal pyz
variable pyz1 equal 1457.10260946977

# Compute elastic constant from pressure tensor

variable C1neg equal -23.9416339042294
variable C2neg equal -34.5857713496883
variable C3neg equal -9.6713493024759
variable C4neg equal 7.97852610642265
variable C5neg equal 7.6656928947109
variable C6neg equal 24.4597282494976

# Reset box and simulation parameters

clear
box tilt large

The 'box' command has been removed and will be ignored

read_restart restart_333U-50C-5-vasp.equil
Reading restart file ...
  restart file = 10 Sep 2025, LAMMPS = 10 Sep 2025
  restoring atom style full from restart
  triclinic box = (-0.14240753 -0.13917082 -0.18829246) to (15.820572 13.683501 17.826547) with tilt (-7.1855434 -1.036063 0.68944016)
  restoring pair style lj/cut from restart
  restoring bond style harmonic from restart
  restoring angle style hybrid from restart
  restoring dihedral style harmonic from restart
  350 atoms
  375 bonds
  709 angles
  879 dihedrals
Finding 1-2 1-3 1-4 neighbors ...
     4 = max # of 1-2 neighbors
     8 = max # of 1-3 neighbors
    12 = max # of special neighbors
  read_restart CPU = 0.001 seconds
include ./input/angles_333U-50C-5-vasp.mod
angle_style hybrid fourier cosine/periodic
angle_coeff 1 fourier 157.882480        0.343737        0.374972        0.281246
angle_coeff 2 fourier 221.735285        0.343737        0.374972        0.281246
angle_coeff 3 fourier 32.417871        0.343737        0.374972        0.281246
angle_coeff 4 fourier 83.380072        0.343737        0.374972        0.281246
angle_coeff 5 fourier 114.246973        0.343737        0.374972        0.281246
angle_coeff 6 fourier 58.020602        0.343737        0.374972        0.281246
angle_coeff 7 fourier 90.420412        0.343737        0.374972        0.281246
angle_coeff 8 fourier 75.498766        0.343737        0.374972        0.281246
angle_coeff 9 cosine/periodic 88.853997              -1               3

# Positive deformation

variable delta equal 0.02*13.8226716444906
variable deltaxy equal 0.02*xy
variable deltaxz equal 0.02*xz
variable deltayz equal 0.02*yz
change_box all xy delta 0.276453432889812 remap units box
Changing box ...
  triclinic box = (-0.14240753 -0.13917082 -0.18829246) to (15.820572 13.683501 17.826547) with tilt (-6.90909 -1.036063 0.68944016)

# Relax atoms positions

minimize 0 1e-10 100000 100000
Generated 6 of 6 mixed pair_coeff terms from arithmetic mixing rule
For more information see https://docs.lammps.org/err0027 (src/domain.cpp:1052)
Step          Temp          E_pair         E_mol          TotEng         Press
250430   274.88308     -434.41745      542.03509      393.57926      2496.7484
Loop time of 0.0249155 on 1 procs for 40 steps with 350 atoms

Minimization stats:
  Stopping criterion = linesearch alpha is zero
  Energy initial, next-to-last, final =
  Force two-norm initial, final = 175.46042 13.392902
  Force max component initial, final = 20.113521 1.7519652
  Final line search alpha, max atom move = 3.5410804e-11 6.2038495e-11
  Iterations, force evaluations = 40 143

# Obtain new stress tensor

variable tmp equal pe
variable e1 equal -6.07390650559961
variable tmp equal press
variable p1 equal -1948.97352486427
variable tmp equal pxx
variable pxx1 equal -2335.58909510377
variable tmp equal pyy
variable pyy1 equal -2903.76055638025
variable tmp equal pzz
variable pzz1 equal -607.570923108775
variable tmp equal pxy
variable pxy1 equal -150.04850523437
variable tmp equal pxz
variable pxz1 equal -3483.66522322202
variable tmp equal pyz
variable pyz1 equal 1106.77228463723

# Compute elastic constant from pressure tensor

variable C1pos equal 27.6991133681617
variable C2pos equal 29.6917327285727
variable C3pos equal 16.8822962849941
variable C4pos equal -6.22687448225995
variable C5pos equal -8.56575306826515
variable C6pos equal 17.1625216433536

# Combine positive and negative

variable C16 equal 0.5*(-23.9416339042294+27.6991133681617)
variable C26 equal 0.5*(-34.5857713496883+29.6917327285727)
variable C36 equal 0.5*(-9.6713493024759+16.8822962849941)
variable C46 equal 0.5*(7.97852610642265+-6.22687448225995)
variable C56 equal 0.5*(7.6656928947109+-8.56575306826515)
variable C66 equal 0.5*(24.4597282494976+17.1625216433536)

# Delete dir to make sure it is not reused

variable dir delete

# Output final values

variable C11all equal 56.5661599735438
variable C22all equal 60.036736233774
variable C33all equal 56.4644593580028

variable C12all equal 0.5*(23.8848285823806+22.3962357838084)
variable C13all equal 0.5*(21.329803746277+22.6176985861929)
variable C23all equal 0.5*(20.1727992496678+21.8119038391271)

variable C44all equal 20.5341308271016
variable C55all equal 17.1137955853948
variable C66all equal 20.8111249464256

variable C14all equal 0.5*(-1.29629313991105+-1.46943074262023)
variable C15all equal 0.5*(4.03866616065685+2.85937513074765)
variable C16all equal 0.5*(1.87873973196615+1.9162735090848)

variable C24all equal 0.5*(1.2274276534991+1.6464396336355)
variable C25all equal 0.5*(-2.5389432579613+-4.4511440911908)
variable C26all equal 0.5*(-2.4470193105578+-1.02186448079308)

variable C34all equal 0.5*(2.1580119895299+1.61167383796332)
variable C35all equal 0.5*(-2.2633934641947+-1.83650585759903)
variable C36all equal 0.5*(3.6054734912591+4.02080505934592)

variable C45all equal 0.5*(0.789392064689275+0.558932751105375)
variable C46all equal 0.5*(0.87582581208135+1.16839279775015)
variable C56all equal 0.5*(-0.450030086777125+0.362549673273725)

# Average moduli for cubic crystals

variable C11cubic equal (56.5661599735438+60.036736233774+56.4644593580028)/3.0
variable C12cubic equal (23.1405321830945+21.973751166235+20.9923515443975)/3.0
variable C44cubic equal (20.5341308271016+17.1137955853948+20.8111249464256)/3.0

variable bulkmodulus equal (57.6891185217735+2*22.0355449645757)/3.0
variable shearmodulus1 equal 19.486350452974
variable shearmodulus2 equal (57.6891185217735-22.0355449645757)/2.0
variable poissonratio equal 1.0/(1.0+57.6891185217735/22.0355449645757)

Elastic Constant 1 1 = 56.5661599735438
Elastic Constant 2 2 = 60.036736233774
Elastic Constant 3 3 = 56.4644593580028

Elastic Constant 1 2 = 23.1405321830945
Elastic Constant 1 3 = 21.973751166235
Elastic Constant 2 3 = 20.9923515443975

Elastic Constant 4 4 = 20.5341308271016
Elastic Constant 5 5 = 17.1137955853948
Elastic Constant 6 6 = 20.8111249464256

Elastic Constant 1 4 = -1.38286194126564
Elastic Constant 1 5 = 3.44902064570225
Elastic Constant 1 6 = 1.89750662052547

Elastic Constant 2 4 = 1.4369336435673
Elastic Constant 2 5 = -3.49504367457605
Elastic Constant 2 6 = -1.73444189567544

Elastic Constant 3 4 = 1.88484291374661
Elastic Constant 3 5 = -2.04994966089687
Elastic Constant 3 6 = 3.81313927530251

Elastic Constant 4 5 = 0.674162407897325
Elastic Constant 4 6 = 1.02210930491575
Elastic Constant 5 6 = -0.0437402067517

Bulk Modulus = 33.9200694836416 GPa
Shear Modulus 1 = 19.486350452974 GPa
Shear Modulus 2 = 17.8267867785989 GPa
Poisson Ratio = 0.276395584515057

variable rho equal density
density (g/cm^3) = 1.63389930449498
