
#======================================================================
# CRYSTAL DATA
#----------------------------------------------------------------------
data_VESTA_phase_1

_chemical_name_common                  '333-BV-12                             '
_cell_length_a                         17.076078
_cell_length_b                         16.127922
_cell_length_c                         17.483471
_cell_angle_alpha                      99.224228
_cell_angle_beta                       87.186806
_cell_angle_gamma                      119.904716
_cell_volume                           4117.239198
_space_group_name_H-M_alt              'P 1'
_space_group_IT_number                 1

loop_
_space_group_symop_operation_xyz
   'x, y, z'

loop_
   _atom_site_label
   _atom_site_occupancy
   _atom_site_fract_x
   _atom_site_fract_y
   _atom_site_fract_z
   _atom_site_adp_type
   _atom_site_U_iso_or_equiv
   _atom_site_type_symbol
   Si1        1.0     0.138978     0.088314     0.007087    Uiso  ? Si
   Si2        1.0     0.238938     0.101420     0.326364    Uiso  ? Si
   Si3        1.0     0.084615     0.169622     0.541492    Uiso  ? Si
   Si4        1.0     0.148583     0.568660     0.294550    Uiso  ? Si
   Si5        1.0     0.206585     0.450614     0.057220    Uiso  ? Si
   Si6        1.0     0.234038     0.329238     0.447678    Uiso  ? Si
   Si7        1.0     0.003119     0.406573     0.468307    Uiso  ? Si
   Si8        1.0     0.266651     0.510079     0.378039    Uiso  ? Si
   Si9        1.0     0.168004     0.237308     0.802230    Uiso  ? Si
   Si10       1.0     0.874097     0.469695     0.824855    Uiso  ? Si
   Si11       1.0     0.233446     0.640109     0.139615    Uiso  ? Si
   Si12       1.0     0.023173     0.846586     0.167788    Uiso  ? Si
   Si13       1.0     0.166485     0.732740     0.028079    Uiso  ? Si
   Si14       1.0     0.181146     0.833784     0.443472    Uiso  ? Si
   Si15       1.0     0.904054     0.737404     0.575817    Uiso  ? Si
   Si16       1.0     0.173371     0.881419     0.283421    Uiso  ? Si
   Si17       1.0     0.264681     0.538996     0.802762    Uiso  ? Si
   Si18       1.0     0.920208     0.793860     0.863744    Uiso  ? Si
   Si19       1.0     0.064889     0.782798     0.684807    Uiso  ? Si
   Si20       1.0     0.465089     0.023920     0.148899    Uiso  ? Si
   Si21       1.0     0.440130     0.089614    -0.000907    Uiso  ? Si
   Si22       1.0     0.273643     0.048030     0.900786    Uiso  ? Si
   Si23       1.0     0.507521     0.304943     0.072293    Uiso  ? Si
   Si24       1.0     0.547493     0.641729     0.060697    Uiso  ? Si
   Si25       1.0     0.401064     0.158828     0.770328    Uiso  ? Si
   Si26       1.0     0.307759     0.369330     0.941398    Uiso  ? Si
   Si27       1.0     0.604163     0.818914     0.185633    Uiso  ? Si
   Si28       1.0     0.334060     0.844453     0.232258    Uiso  ? Si
   Si29       1.0     0.541487     0.900505     0.069674    Uiso  ? Si
   Si30       1.0     0.466724     0.945552     0.381986    Uiso  ? Si
   Si31       1.0     0.245820     0.719545     0.862239    Uiso  ? Si
   Si32       1.0     0.875763     0.190024     0.163192    Uiso  ? Si
   Si33       1.0     0.610272     0.207153     0.248817    Uiso  ? Si
   Si34       1.0     0.793979     0.201251     0.010262    Uiso  ? Si
   Si35       1.0     0.928640     0.016023     0.428521    Uiso  ? Si
   Si36       1.0     0.613633     0.111254     0.917547    Uiso  ? Si
   Si37       1.0     0.921830     0.172601     0.637922    Uiso  ? Si
   Si38       1.0     0.816428     0.406863     0.076618    Uiso  ? Si
   Si39       1.0     0.681183     0.558132     0.192290    Uiso  ? Si
   Si40       1.0     0.773278     0.514541     0.967210    Uiso  ? Si
   Si41       1.0     0.748802     0.304007     0.691376    Uiso  ? Si
   Si42       1.0     0.620627     0.548908     0.928229    Uiso  ? Si
   Si43       1.0     0.839629     0.410452     0.551193    Uiso  ? Si
   Si44       1.0     0.836921     0.701242     0.096160    Uiso  ? Si
   Si45       1.0     0.789557     0.006902     0.248575    Uiso  ? Si
   Si46       1.0     0.822428     0.849547     0.005430    Uiso  ? Si
   Si47       1.0     0.812046     0.597464     0.420277    Uiso  ? Si
   Si48       1.0     0.737816     0.859097     0.470757    Uiso  ? Si
   Si49       1.0     0.906099     0.916022     0.263551    Uiso  ? Si
   Si50       1.0     0.731998     0.642885     0.790380    Uiso  ? Si
   Si51       1.0     0.776076     0.786867     0.687318    Uiso  ? Si
   C1         1.0     0.157872     0.111201     0.114076    Uiso  ? C
   C2         1.0     0.361370     0.190569     0.348616    Uiso  ? C
   C3         1.0     0.202027     0.377359     0.131410    Uiso  ? C
   C4         1.0     0.339048     0.382606     0.509383    Uiso  ? C
   C5         1.0     0.072486     0.441172     0.559660    Uiso  ? C
   C6         1.0     0.994765     0.299131     0.402384    Uiso  ? C
   C7         1.0     0.360123     0.508531     0.319152    Uiso  ? C
   C8         1.0     0.070669     0.245595     0.848613    Uiso  ? C
   C9         1.0     0.129339     0.106143     0.768992    Uiso  ? C
   C10        1.0     0.217522     0.309037     0.720082    Uiso  ? C
   C11        1.0     0.942790     0.434708     0.877168    Uiso  ? C
   C12        1.0     0.091625     0.421121     0.026404    Uiso  ? C
   C13        1.0     0.093886     0.709923     0.460654    Uiso  ? C
   C14        1.0     0.305371     0.619931     0.453020    Uiso  ? C
   C15        1.0     0.213627     0.934042     0.527500    Uiso  ? C
   C16        1.0     0.965169     0.855426     0.540432    Uiso  ? C
   C17        1.0     0.946136     0.555010     0.758649    Uiso  ? C
   C18        1.0    -0.010729     0.762764     0.919150    Uiso  ? C
   C19        1.0     0.147540     0.740471     0.655480    Uiso  ? C
   C20        1.0     0.188360     0.926075     0.854242    Uiso  ? C
   C21        1.0     0.417167     0.287521     0.143324    Uiso  ? C
   C22        1.0     0.455765     0.543595     0.107429    Uiso  ? C
   C23        1.0     0.441071     0.068377     0.744735    Uiso  ? C
   C24        1.0     0.355290     0.167769     0.678506    Uiso  ? C
   C25        1.0     0.555153     0.782966     0.279734    Uiso  ? C
   C26        1.0     0.645842     0.930823     0.015834    Uiso  ? C
   C27        1.0     0.457218     0.880712     0.464493    Uiso  ? C
   C28        1.0     0.448967     0.050347     0.417072    Uiso  ? C
   C29        1.0     0.342314     0.819453     0.820439    Uiso  ? C
   C30        1.0     0.438001     0.821796     0.007128    Uiso  ? C
   C31        1.0     0.907883     0.312594     0.215451    Uiso  ? C
   C32        1.0     0.672715     0.185913     0.321181    Uiso  ? C
   C33        1.0     0.593754     0.310657     0.292505    Uiso  ? C
   C34        1.0     0.853539     0.177552     0.925507    Uiso  ? C
   C35        1.0     0.616038     0.017305     0.840558    Uiso  ? C
   C36        1.0     0.837897     0.153029     0.562349    Uiso  ? C
   C37        1.0     0.879432     0.060626     0.683161    Uiso  ? C
   C38        1.0     0.927279     0.514586     0.109795    Uiso  ? C
   C39        1.0     0.621648     0.591977     0.272499    Uiso  ? C
   C40        1.0     0.642559     0.222765     0.878325    Uiso  ? C
   C41        1.0     0.636632     0.278448     0.656277    Uiso  ? C
   C42        1.0     0.946558     0.280911     0.711682    Uiso  ? C
   C43        1.0     0.484101     0.283670     0.817929    Uiso  ? C
   C44        1.0     0.875189     0.980025     0.045240    Uiso  ? C
   C45        1.0     0.688186     0.539161     0.440079    Uiso  ? C
   C46        1.0     0.842206     0.505817     0.370341    Uiso  ? C
   C47        1.0     0.663361     0.894361     0.531640    Uiso  ? C
   C48        1.0     0.853805     0.697640     0.361047    Uiso  ? C
   C49        1.0     0.693218     0.525286     0.726556    Uiso  ? C
   H1         1.0     0.115271     0.158248    -0.016794    Uiso  ? H
   H2         1.0     0.062374     0.988559     0.980924    Uiso  ? H
   H3         1.0     0.199247     0.134495     0.272626    Uiso  ? H
   H4         1.0     0.142975     0.148745     0.584954    Uiso  ? H
   H5         1.0     0.197316     0.666236     0.342304    Uiso  ? H
   H6         1.0     0.237023     0.269171     0.374664    Uiso  ? H
   H7         1.0     0.076999     0.889346     0.101728    Uiso  ? H
   H8         1.0     0.192221     0.827959     0.075769    Uiso  ? H
   H9         1.0     0.041784     0.493434     0.428517    Uiso  ? H
   H10        1.0     0.265192     0.832015     0.418490    Uiso  ? H
   H11        1.0     0.186136     0.083819     0.398463    Uiso  ? H
   H12        1.0     0.173359     0.452517     0.803783    Uiso  ? H
   H13        1.0     0.335633     0.521266     0.829565    Uiso  ? H
   H14        1.0     0.069679     0.677904     0.002490    Uiso  ? H
   H15        1.0     0.973785     0.867543     0.812826    Uiso  ? H
   H16        1.0     0.282608     0.560166     0.721406    Uiso  ? H
   H17        1.0     0.039013     0.765103     0.764887    Uiso  ? H
   H18        1.0     0.107066     0.888836     0.682734    Uiso  ? H
   H19        1.0     0.593215     0.330157     0.112610    Uiso  ? H
   H20        1.0     0.394035     0.441020     0.911197    Uiso  ? H
   H21        1.0     0.511439     0.677254     0.005718    Uiso  ? H
   H22        1.0     0.324692     0.324693     0.002369    Uiso  ? H
   H23        1.0     0.159652     0.680682     0.816525    Uiso  ? H
   H24        1.0     0.910923     0.087474     0.401792    Uiso  ? H
   H25        1.0     0.662690     0.228448     0.176856    Uiso  ? H
   H26        1.0     0.755601     0.373267     0.142050    Uiso  ? H
   H27        1.0     0.049624     0.518997     0.304235    Uiso  ? H
   H28        1.0     0.522620     0.380791     0.025812    Uiso  ? H
   H29        1.0     0.614495     0.492458     0.128330    Uiso  ? H
   H30        1.0     0.724999     0.507239     0.219284    Uiso  ? H
   H31        1.0     0.743761     0.211378     0.700833    Uiso  ? H
   H32        1.0     0.531083     0.478836     0.892007    Uiso  ? H
   H33        1.0     0.750556     0.379967     0.514174    Uiso  ? H
   H34        1.0     0.763071     0.014464     0.330197    Uiso  ? H
   H35        1.0     0.559495     0.982397     0.351269    Uiso  ? H
   H36        1.0     0.957839     0.182981     0.140849    Uiso  ? H
   H37        1.0     0.724332     0.801523    -0.012369    Uiso  ? H
   H38        1.0     0.735142     0.773069     0.494738    Uiso  ? H
   H39        1.0     0.827033     0.817678     0.251405    Uiso  ? H
   H40        1.0     0.890599     0.516200     0.579205    Uiso  ? H
   H41        1.0     0.708899     0.834068     0.387086    Uiso  ? H
   H42        1.0     0.717905     0.809763     0.644647    Uiso  ? H
   H43        1.0     0.851016     0.876086     0.731653    Uiso  ? H
   H44        1.0     0.185335     0.067742     0.131039    Uiso  ? H
   H45        1.0     0.094340     0.091679     0.144171    Uiso  ? H
   H46        1.0     0.205771     0.187736     0.135099    Uiso  ? H
   H47        1.0     0.375572     0.265318     0.351504    Uiso  ? H
   H48        1.0     0.401962     0.177064     0.302914    Uiso  ? H
   H49        1.0     0.383708     0.184044     0.404100    Uiso  ? H
   H50        1.0     0.269168     0.388549     0.144678    Uiso  ? H
   H51        1.0     0.157374     0.299920     0.110111    Uiso  ? H
   H52        1.0     0.175187     0.396201     0.185700    Uiso  ? H
   H53        1.0     0.399444     0.428668     0.478784    Uiso  ? H
   H54        1.0     0.348519     0.325286     0.526398    Uiso  ? H
   H55        1.0     0.335294     0.426978     0.562695    Uiso  ? H
   H56        1.0     0.144187     0.471219     0.545973    Uiso  ? H
   H57        1.0     0.053550     0.378760     0.588931    Uiso  ? H
   H58        1.0     0.065693     0.496655     0.600305    Uiso  ? H
   H59        1.0     0.000191     0.250149     0.435853    Uiso  ? H
   H60        1.0     0.048780     0.320042     0.360471    Uiso  ? H
   H61        1.0     0.928916     0.258944     0.370951    Uiso  ? H
   H62        1.0     0.389089     0.566655     0.283485    Uiso  ? H
   H63        1.0     0.335627     0.439307     0.279910    Uiso  ? H
   H64        1.0     0.415098     0.518660     0.356638    Uiso  ? H
   H65        1.0     0.057115     0.212576     0.901656    Uiso  ? H
   H66        1.0     0.008867     0.204955     0.811687    Uiso  ? H
   H67        1.0     0.084521     0.320363     0.865060    Uiso  ? H
   H68        1.0     0.082444     0.079037     0.718363    Uiso  ? H
   H69        1.0     0.092711     0.062619     0.814525    Uiso  ? H
   H70        1.0     0.185627     0.093353     0.752351    Uiso  ? H
   H71        1.0     0.275121     0.380806     0.741632    Uiso  ? H
   H72        1.0     0.167793     0.318758     0.690915    Uiso  ? H
   H73        1.0     0.243403     0.272916     0.676070    Uiso  ? H
   H74        1.0     0.981468     0.410292     0.837300    Uiso  ? H
   H75        1.0     0.903101     0.378860     0.913347    Uiso  ? H
   H76        1.0    -0.008304     0.499940     0.915894    Uiso  ? H
   H77        1.0     0.049583     0.342667     0.007845    Uiso  ? H
   H78        1.0     0.094071     0.457339    -0.022498    Uiso  ? H
   H79        1.0     0.057790     0.442825     0.073801    Uiso  ? H
   H80        1.0     0.124518     0.673141     0.484310    Uiso  ? H
   H81        1.0     0.061215     0.666942     0.404431    Uiso  ? H
   H82        1.0     0.040683     0.707711     0.499381    Uiso  ? H
   H83        1.0     0.331629     0.685550     0.426281    Uiso  ? H
   H84        1.0     0.359242     0.628546     0.491049    Uiso  ? H
   H85        1.0     0.249499     0.615088     0.489719    Uiso  ? H
   H86        1.0     0.257636     0.004055     0.507864    Uiso  ? H
   H87        1.0     0.251587     0.927085     0.572764    Uiso  ? H
   H88        1.0     0.155280     0.936808     0.554102    Uiso  ? H
   H89        1.0     0.916936     0.872031     0.517361    Uiso  ? H
   H90        1.0     0.011280     0.856704     0.494076    Uiso  ? H
   H91        1.0     0.004614     0.914256     0.587988    Uiso  ? H
   H92        1.0     0.911977     0.587314     0.733655    Uiso  ? H
   H93        1.0    -0.034400     0.516141     0.711058    Uiso  ? H
   H94        1.0     0.008401     0.613599     0.789483    Uiso  ? H
   H95        1.0     0.029613     0.738500     0.881690    Uiso  ? H
   H96        1.0    -0.054920     0.704651     0.951817    Uiso  ? H
   H97        1.0     0.035237     0.826563     0.960384    Uiso  ? H
   H98        1.0     0.200322     0.770411     0.701602    Uiso  ? H
   H99        1.0     0.180389     0.763239     0.601327    Uiso  ? H
   H100       1.0     0.114367     0.661139     0.648969    Uiso  ? H
   H101       1.0     0.168069     0.872913     0.893644    Uiso  ? H
   H102       1.0     0.217533     0.903459     0.803293    Uiso  ? H
   H103       1.0     0.127928     0.925100     0.834394    Uiso  ? H
   H104       1.0     0.399064     0.225003     0.172345    Uiso  ? H
   H105       1.0     0.356269     0.274579     0.113097    Uiso  ? H
   H106       1.0     0.438978     0.352034     0.187883    Uiso  ? H
   H107       1.0     0.421884     0.475261     0.066944    Uiso  ? H
   H108       1.0     0.405034     0.564280     0.127779    Uiso  ? H
   H109       1.0     0.482203     0.529877     0.157030    Uiso  ? H
   H110       1.0     0.385332     0.001167     0.713308    Uiso  ? H
   H111       1.0     0.458957     0.049842     0.796465    Uiso  ? H
   H112       1.0     0.499045     0.092323     0.706700    Uiso  ? H
   H113       1.0     0.334088     0.222558     0.688094    Uiso  ? H
   H114       1.0     0.297871     0.098540     0.652231    Uiso  ? H
   H115       1.0     0.409115     0.190095     0.636001    Uiso  ? H
   H116       1.0     0.587467     0.750964     0.307671    Uiso  ? H
   H117       1.0     0.482398     0.730996     0.271234    Uiso  ? H
   H118       1.0     0.563150     0.847060     0.319353    Uiso  ? H
   H119       1.0     0.645757     0.959267     0.963090    Uiso  ? H
   H120       1.0     0.651016     0.865262    -0.001433    Uiso  ? H
   H121       1.0     0.705864     0.985421     0.051422    Uiso  ? H
   H122       1.0     0.505399     0.932509     0.511516    Uiso  ? H
   H123       1.0     0.473107     0.822301     0.447837    Uiso  ? H
   H124       1.0     0.389142     0.849687     0.487789    Uiso  ? H
   H125       1.0     0.452755     0.088849     0.369482    Uiso  ? H
   H126       1.0     0.501695     0.101623     0.461308    Uiso  ? H
   H127       1.0     0.383151     0.026878     0.443854    Uiso  ? H
   H128       1.0     0.337667     0.802737     0.756697    Uiso  ? H
   H129       1.0     0.406509     0.827596     0.839361    Uiso  ? H
   H130       1.0     0.344765     0.889161     0.837977    Uiso  ? H
   H131       1.0     0.377562     0.791181     0.041702    Uiso  ? H
   H132       1.0     0.441485     0.761158     0.971451    Uiso  ? H
   H133       1.0     0.429610     0.864417    -0.031485    Uiso  ? H
   H134       1.0    -0.049454     0.366098     0.178135    Uiso  ? H
   H135       1.0     0.947386     0.329402     0.268967    Uiso  ? H
   H136       1.0     0.848810     0.321289     0.230064    Uiso  ? H
   H137       1.0     0.738910     0.251689     0.335639    Uiso  ? H
   H138       1.0     0.685119     0.126074     0.298953    Uiso  ? H
   H139       1.0     0.636353     0.170820     0.375330    Uiso  ? H
   H140       1.0     0.564671     0.300405     0.350056    Uiso  ? H
   H141       1.0     0.549640     0.320797     0.256040    Uiso  ? H
   H142       1.0     0.659812     0.377429     0.299633    Uiso  ? H
   H143       1.0     0.837817     0.197017     0.873147    Uiso  ? H
   H144       1.0     0.832874     0.100170     0.913515    Uiso  ? H
   H145       1.0     0.927132     0.218943     0.935228    Uiso  ? H
   H146       1.0     0.581655     0.944759     0.857221    Uiso  ? H
   H147       1.0     0.685684     0.035543     0.826210    Uiso  ? H
   H148       1.0     0.581605     0.013044     0.787291    Uiso  ? H
   H149       1.0     0.826062     0.093396     0.515795    Uiso  ? H
   H150       1.0     0.858752     0.218448     0.536635    Uiso  ? H
   H151       1.0     0.772915     0.134406     0.589653    Uiso  ? H
   H152       1.0     0.868569    -0.000858     0.638590    Uiso  ? H
   H153       1.0     0.814393     0.042076     0.710444    Uiso  ? H
   H154       1.0     0.926508     0.068130     0.727897    Uiso  ? H
   H155       1.0     0.973169     0.537734     0.061627    Uiso  ? H
   H156       1.0     0.960798     0.499529     0.153356    Uiso  ? H
   H157       1.0     0.919359     0.576313     0.136625    Uiso  ? H
   H158       1.0     0.569367     0.526445     0.294139    Uiso  ? H
   H159       1.0     0.588296     0.627122     0.250810    Uiso  ? H
   H160       1.0     0.667611     0.641314     0.321351    Uiso  ? H
   H161       1.0     0.599567     0.207857     0.827641    Uiso  ? H
   H162       1.0     0.712867     0.257090     0.860240    Uiso  ? H
   H163       1.0     0.636094     0.275658     0.922173    Uiso  ? H
   H164       1.0     0.617214     0.225389     0.602584    Uiso  ? H
   H165       1.0     0.637995     0.343386     0.642959    Uiso  ? H
   H166       1.0     0.584228     0.247180     0.698254    Uiso  ? H
   H167       1.0     0.944069     0.336629     0.684853    Uiso  ? H
   H168       1.0     0.013856     0.312649     0.739263    Uiso  ? H
   H169       1.0     0.896807     0.261328     0.757360    Uiso  ? H
   H170       1.0     0.544686     0.323070     0.785280    Uiso  ? H
   H171       1.0     0.505672     0.283715     0.876032    Uiso  ? H
   H172       1.0     0.448115     0.325030     0.824979    Uiso  ? H
   H173       1.0     0.883178     0.021973     0.998869    Uiso  ? H
   H174       1.0     0.942039     0.006423     0.071876    Uiso  ? H
   H175       1.0     0.833541    -0.006588     0.089501    Uiso  ? H
   H176       1.0     0.644932     0.498386     0.387778    Uiso  ? H
   H177       1.0     0.670062     0.593511     0.467077    Uiso  ? H
   H178       1.0     0.672611     0.488100     0.481005    Uiso  ? H
   H179       1.0     0.820541     0.487639     0.308737    Uiso  ? H
   H180       1.0     0.810066     0.438230     0.394974    Uiso  ? H
   H181       1.0     0.915674     0.534711     0.372635    Uiso  ? H
   H182       1.0     0.594780     0.831666     0.530823    Uiso  ? H
   H183       1.0     0.658861     0.952438     0.510455    Uiso  ? H
   H184       1.0     0.689053     0.919462     0.592163    Uiso  ? H
   H185       1.0     0.832477     0.750771     0.382947    Uiso  ? H
   H186       1.0     0.830950     0.670280     0.299959    Uiso  ? H
   H187       1.0     0.928227     0.736774     0.362141    Uiso  ? H
   H188       1.0     0.620815     0.491430     0.711382    Uiso  ? H
   H189       1.0     0.703746     0.475650     0.755206    Uiso  ? H
   H190       1.0     0.730507     0.536328     0.672599    Uiso  ? H
   O1         1.0     0.146306     0.260432     0.495348    Uiso  ? O
   O2         1.0     0.189345     0.502505     0.318930    Uiso  ? O
   O3         1.0     0.218495     0.414410     0.423003    Uiso  ? O
   O4         1.0     0.161444     0.579999     0.202463    Uiso  ? O
   O5         1.0     0.267999     0.568922     0.092579    Uiso  ? O
   O6         1.0     0.181638     0.664866     0.079122    Uiso  ? O
   O7         1.0     0.083139     0.829639     0.226628    Uiso  ? O
   O8         1.0     0.142040     0.860072     0.370909    Uiso  ? O
   O9         1.0     0.230173     0.997539     0.282174    Uiso  ? O
   O10        1.0     0.971792     0.723773     0.629401    Uiso  ? O
   O11        1.0     0.422821     0.055158     0.084256    Uiso  ? O
   O12        1.0     0.346033     0.033605     0.947792    Uiso  ? O
   O13        1.0     0.230813     0.100347     0.963089    Uiso  ? O
   O14        1.0     0.477791     0.205443     0.008828    Uiso  ? O
   O15        1.0     0.320867     0.116000     0.834018    Uiso  ? O
   O16        1.0     0.249345     0.283033     0.870698    Uiso  ? O
   O17        1.0     0.256607     0.428950     0.979575    Uiso  ? O
   O18        1.0     0.611855     0.731653     0.128981    Uiso  ? O
   O19        1.0     0.317334     0.740056     0.184963    Uiso  ? O
   O20        1.0     0.382068     0.927760     0.177568    Uiso  ? O
   O21        1.0     0.235124     0.832493     0.253218    Uiso  ? O
   O22        1.0     0.538561     0.845104     0.142748    Uiso  ? O
   O23        1.0     0.542233     0.001019     0.110802    Uiso  ? O
   O24        1.0     0.394364     0.869567     0.310227    Uiso  ? O
   O25        1.0     0.267577     0.630929     0.861608    Uiso  ? O
   O26        1.0     0.229402     0.754748     0.951902    Uiso  ? O
   O27        1.0     0.508513     0.110251     0.223326    Uiso  ? O
   O28        1.0     0.813513     0.164155     0.085064    Uiso  ? O
   O29        1.0     0.022085     0.070686     0.480829    Uiso  ? O
   O30        1.0     0.685098     0.141545    -0.009031    Uiso  ? O
   O31        1.0     0.510936     0.062227     0.951971    Uiso  ? O
   O32        1.0     0.020986     0.198274     0.598368    Uiso  ? O
   O33        1.0     0.831002     0.317972     0.031839    Uiso  ? O
   O34        1.0     0.832251     0.520986     0.890741    Uiso  ? O
   O35        1.0     0.763126     0.431530     0.015120    Uiso  ? O
   O36        1.0     0.785734     0.376703     0.774353    Uiso  ? O
   O37        1.0     0.672551     0.489671     0.941237    Uiso  ? O
   O38        1.0     0.612273     0.604270     0.012287    Uiso  ? O
   O39        1.0     0.896935     0.378358     0.488002    Uiso  ? O
   O40        1.0     0.822439     0.352566     0.625070    Uiso  ? O
   O41        1.0     0.759717     0.655121     0.158655    Uiso  ? O
   O42        1.0     0.824138     0.620187     0.022027    Uiso  ? O
   O43        1.0     0.935621     0.740175     0.138241    Uiso  ? O
   O44        1.0     0.706901     0.912967     0.197441    Uiso  ? O
   O45        1.0     0.814715     0.106932     0.218001    Uiso  ? O
   O46        1.0     0.871204     0.840906     0.924062    Uiso  ? O
   O47        1.0     0.838061     0.793127     0.068998    Uiso  ? O
   O48        1.0     0.865280     0.644626     0.506761    Uiso  ? O
   O49        1.0     0.844157     0.949188     0.480251    Uiso  ? O
   O50        1.0     0.990307     0.921326     0.211848    Uiso  ? O
   O51        1.0     0.879365     0.993978     0.241487    Uiso  ? O
   O52        1.0     0.939717     0.946669     0.355028    Uiso  ? O
   O53        1.0     0.678037     0.629650     0.871796    Uiso  ? O
   O54        1.0     0.841315     0.696596     0.808749    Uiso  ? O
   O55        1.0     0.817923     0.731865     0.626209    Uiso  ? O
   O56        1.0     0.710643     0.713660     0.747118    Uiso  ? O
